data_HCOGeIr
_audit_creation_method        'pos2cif.py by jyxu'
_cell_length_a                5.84467938          
_cell_length_b                6.31938021          
_cell_length_c                21.92922041         
_cell_angle_alpha             90.0                
_cell_angle_beta              90.0                
_cell_angle_gamma             90.0                
_symmetry_space_group_H-M     'P1'                
_symmetry_Int_Tables_number   '1'                 
_symmetry_cell_setting        'triclinic'         
loop_                         
_symmetry_equiv_pos_as_xyz    
x,y,z                         

loop_                         
_atom_site_label              
_atom_site_type_symbol        
_atom_site_occupancy          
_atom_site_fract_x            
_atom_site_fract_y            
_atom_site_fract_z            
_atom_site_U_iso_or_equiv     
H1        H         1.0     0.63102843          0.39974095          0.6063618           0.0     
H2        H         1.0     0.78473378          0.65021416          0.60931512          0.0     
H3        H         1.0     0.47762575          0.65040867          0.60932282          0.0     
C1        C         1.0     0.63111252          0.56757057          0.59327515          0.0     
O1        O         1.0     0.13081             0.5697              0.0                 0.0     
O2        O         1.0     0.63081             0.5697              0.0                 0.0     
O3        O         1.0     0.38081             0.26356             0.05586             0.0     
O4        O         1.0     0.88081             0.26356             0.05586             0.0     
O5        O         1.0     0.38081             0.87584             0.05586             0.0     
O6        O         1.0     0.88081             0.87584             0.05586             0.0     
O7        O         1.0     0.13081             0.5697              0.11173             0.0     
O8        O         1.0     0.63081             0.5697              0.11173             0.0     
O9        O         1.0     0.13081             0.0697              0.14409             0.0     
O10       O         1.0     0.63081             0.0697              0.14409             0.0     
O11       O         1.0     0.38081             0.37584             0.19995             0.0     
O12       O         1.0     0.88081             0.37584             0.19995             0.0     
O13       O         1.0     0.38081             0.76356             0.19995             0.0     
O14       O         1.0     0.88081             0.76356             0.19995             0.0     
O15       O         1.0     0.13081             0.0697              0.25582             0.0     
O16       O         1.0     0.63081             0.0697              0.25582             0.0     
O17       O         1.0     0.13081501          0.57066578          0.28790198          0.0     
O18       O         1.0     0.63079339          0.57063648          0.28646494          0.0     
O19       O         1.0     0.380593            0.26483717          0.34381507          0.0     
O20       O         1.0     0.88101303          0.26483764          0.34380577          0.0     
O21       O         1.0     0.38045929          0.87506921          0.34449891          0.0     
O22       O         1.0     0.88116635          0.87507628          0.34449248          0.0     
O23       O         1.0     0.13087843          0.56829278          0.39758627          0.0     
O24       O         1.0     0.63088191          0.56918952          0.39890977          0.0     
O25       O         1.0     0.13083769          0.07297413          0.43402815          0.0     
O26       O         1.0     0.6308423           0.07254998          0.43420146          0.0     
O27       O         1.0     0.3692772           0.38183323          0.49648711          0.0     
O28       O         1.0     0.89278307          0.38183472          0.49647483          0.0     
O29       O         1.0     0.36949509          0.76058313          0.49464689          0.0     
O30       O         1.0     0.89262356          0.76059249          0.49463276          0.0     
O31       O         1.0     0.63095858          0.06939248          0.54685396          0.0     
O32       O         1.0     0.13093171          0.06883027          0.54796637          0.0     
Ge1       Ge        1.0     0.13081             0.0697              0.05586             0.0     
Ge2       Ge        1.0     0.63081             0.0697              0.05586             0.0     
Ge3       Ge        1.0     0.38081             0.5697              0.05586             0.0     
Ge4       Ge        1.0     0.88081             0.5697              0.05586             0.0     
Ge5       Ge        1.0     0.38081             0.0697              0.19995             0.0     
Ge6       Ge        1.0     0.88081             0.0697              0.19995             0.0     
Ge7       Ge        1.0     0.13081             0.5697              0.19995             0.0     
Ge8       Ge        1.0     0.63081             0.5697              0.19995             0.0     
Ge9       Ge        1.0     0.87619293          0.56986252          0.34213913          0.0     
Ge10      Ge        1.0     0.38548109          0.5698566           0.34214666          0.0     
Ge11      Ge        1.0     0.13079857          0.07024172          0.34589559          0.0     
Ge12      Ge        1.0     0.63080304          0.07014632          0.34668253          0.0     
Ge13      Ge        1.0     0.1310593           0.57044815          0.47963017          0.0     
Ge14      Ge        1.0     0.88107444          0.07091257          0.49545833          0.0     
Ge15      Ge        1.0     0.38076906          0.0709048           0.49546479          0.0     
Ir1       Ir        1.0     0.63103363          0.57154351          0.49978433          0.0     
