data_HCOCrOs
_audit_creation_method        'pos2cif.py by jyxu'
_cell_length_a                6.42203989          
_cell_length_b                6.36275553          
_cell_length_c                21.98514082         
_cell_angle_alpha             90.0                
_cell_angle_beta              90.0                
_cell_angle_gamma             90.0                
_symmetry_space_group_H-M     'P1'                
_symmetry_Int_Tables_number   '1'                 
_symmetry_cell_setting        'triclinic'         
loop_                         
_symmetry_equiv_pos_as_xyz    
x,y,z                         

loop_                         
_atom_site_label              
_atom_site_type_symbol        
_atom_site_occupancy          
_atom_site_fract_x            
_atom_site_fract_y            
_atom_site_fract_z            
_atom_site_U_iso_or_equiv     
H1        H         1.0     0.63062547          0.40504528          0.60083392          0.0     
H2        H         1.0     0.77039716          0.65090447          0.60288836          0.0     
H3        H         1.0     0.49094506          0.65094107          0.60287878          0.0     
C1        C         1.0     0.630652            0.57004563          0.58620639          0.0     
O1        O         1.0     0.13081166          0.5696981           0.0                 0.0     
O2        O         1.0     0.63081166          0.5696981           0.0                 0.0     
O3        O         1.0     0.38081166          0.2615181           0.05551494          0.0     
O4        O         1.0     0.88081166          0.2615181           0.05551494          0.0     
O5        O         1.0     0.38081166          0.8778781           0.05551494          0.0     
O6        O         1.0     0.88081166          0.8778781           0.05551494          0.0     
O7        O         1.0     0.13081166          0.5696981           0.11102988          0.0     
O8        O         1.0     0.63081166          0.5696981           0.11102988          0.0     
O9        O         1.0     0.63081166          0.0696981           0.14470582          0.0     
O10       O         1.0     0.13081166          0.0696981           0.14470582          0.0     
O11       O         1.0     0.38081166          0.3778781           0.20022076          0.0     
O12       O         1.0     0.88081166          0.3778781           0.20022076          0.0     
O13       O         1.0     0.38081166          0.7615181           0.20022076          0.0     
O14       O         1.0     0.88081166          0.7615181           0.20022076          0.0     
O15       O         1.0     0.13081166          0.0696981           0.2557357           0.0     
O16       O         1.0     0.63081166          0.0696981           0.2557357           0.0     
O17       O         1.0     0.1307993           0.56968341          0.2888258           0.0     
O18       O         1.0     0.63078011          0.56981321          0.28890439          0.0     
O19       O         1.0     0.38098672          0.26073498          0.34518556          0.0     
O20       O         1.0     0.8805434           0.26074152          0.34517272          0.0     
O21       O         1.0     0.38091731          0.87877307          0.34527192          0.0     
O22       O         1.0     0.88060053          0.87877675          0.34527033          0.0     
O23       O         1.0     0.13075094          0.56942426          0.39745304          0.0     
O24       O         1.0     0.63079993          0.56929344          0.39928155          0.0     
O25       O         1.0     0.13066815          0.07107883          0.43478778          0.0     
O26       O         1.0     0.6307336           0.07071953          0.4345362           0.0     
O27       O         1.0     0.37794283          0.37981714          0.49210044          0.0     
O28       O         1.0     0.88374142          0.37978212          0.49215806          0.0     
O29       O         1.0     0.37765713          0.76050011          0.49074228          0.0     
O30       O         1.0     0.88395257          0.76049801          0.49074218          0.0     
O31       O         1.0     0.13076619          0.06822373          0.54351826          0.0     
O32       O         1.0     0.63072069          0.06746542          0.54202154          0.0     
Cr1       Cr        1.0     0.63088426          0.57031635          0.49288433          0.0     
Os1       Os        1.0     0.13081166          0.0696981           0.05551494          0.0     
Os2       Os        1.0     0.63081166          0.0696981           0.05551494          0.0     
Os3       Os        1.0     0.38081166          0.5696981           0.05551494          0.0     
Os4       Os        1.0     0.88081166          0.5696981           0.05551494          0.0     
Os5       Os        1.0     0.38081166          0.0696981           0.20022076          0.0     
Os6       Os        1.0     0.88081166          0.0696981           0.20022076          0.0     
Os7       Os        1.0     0.13081166          0.5696981           0.20022076          0.0     
Os8       Os        1.0     0.63081166          0.5696981           0.20022076          0.0     
Os9       Os        1.0     0.3841454           0.56969146          0.34453145          0.0     
Os10      Os        1.0     0.87738925          0.56970043          0.34451853          0.0     
Os11      Os        1.0     0.13074586          0.06982522          0.345604            0.0     
Os12      Os        1.0     0.630756            0.06975596          0.34563242          0.0     
Os13      Os        1.0     0.13082561          0.56987245          0.48396955          0.0     
Os14      Os        1.0     0.38031838          0.06984051          0.49358604          0.0     
Os15      Os        1.0     0.88111763          0.06982779          0.49360733          0.0     
