data_HCOIr
_audit_creation_method        'pos2cif.py'        
_cell_length_a                6.36215693          
_cell_length_b                6.38448299          
_cell_length_c                22.02159841         
_cell_angle_alpha             90.0                
_cell_angle_beta              90.0                
_cell_angle_gamma             90.0                
_symmetry_space_group_H-M     'P1'                
_symmetry_Int_Tables_number   '1'                 
_symmetry_cell_setting        'triclinic'         
loop_                         
_symmetry_equiv_pos_as_xyz    
x,y,z                         

loop_                         
_atom_site_label              
_atom_site_type_symbol        
_atom_site_occupancy          
_atom_site_fract_x            
_atom_site_fract_y            
_atom_site_fract_z            
_atom_site_U_iso_or_equiv     
H1   H    1.0     0.58468288          0.19257341          0.60629308          0.0     
H2   H    1.0     0.42755243          0.42737081          0.60437641          0.0     
H3   H    1.0     0.7065417           0.44857147          0.60753716          0.0     
C4   C    1.0     0.57577531          0.35464161          0.58987073          0.0     
O5   O    1.0     0.08911             0.35546             0.0                 0.0     
O6   O    1.0     0.58911             0.35546             0.0                 0.0     
O7   O    1.0     0.33911             0.04693             0.05551             0.0     
O8   O    1.0     0.83911             0.04693             0.05551             0.0     
O9   O    1.0     0.33911             0.66399             0.05551             0.0     
O10  O    1.0     0.83911             0.66399             0.05551             0.0     
O11  O    1.0     0.08911             0.35546             0.11102             0.0     
O12  O    1.0     0.58911             0.35546             0.11102             0.0     
O13  O    1.0     0.58911             -0.14454            0.14496             0.0     
O14  O    1.0     0.08911             -0.14454            0.14496             0.0     
O15  O    1.0     0.33911             0.16399             0.20047             0.0     
O16  O    1.0     0.83911             0.16399             0.20047             0.0     
O17  O    1.0     0.33911             0.54693             0.20047             0.0     
O18  O    1.0     0.83911             0.54693             0.20047             0.0     
O19  O    1.0     0.08911             -0.14454            0.25598             0.0     
O20  O    1.0     0.58911             -0.14454            0.25598             0.0     
O21  O    1.0     0.58855616          0.35525379          0.28937902          0.0     
O22  O    1.0     0.08869839          0.3546969           0.29007131          0.0     
O23  O    1.0     0.33878186          0.04491358          0.34599657          0.0     
O24  O    1.0     0.83785056          0.04490909          0.34592103          0.0     
O25  O    1.0     0.33853688          0.66198978          0.34621841          0.0     
O26  O    1.0     0.83810267          0.66198426          0.34617035          0.0     
O27  O    1.0     0.08822676          0.34824682          0.4000234           0.0     
O28  O    1.0     0.58870628          0.35226434          0.39968644          0.0     
O29  O    1.0     0.08649289          -0.14716604         0.43633124          0.0     
O30  O    1.0     0.58701129          -0.14731936         0.43646365          0.0     
O31  O    1.0     0.33560209          0.54304934          0.49322399          0.0     
O32  O    1.0     0.8363267           0.54269577          0.49416474          0.0     
O33  O    1.0     0.33544965          0.16150601          0.49430229          0.0     
O34  O    1.0     0.83641943          0.16175188          0.49509166          0.0     
O35  O    1.0     0.08665887          -0.14968795         0.54701877          0.0     
O36  O    1.0     0.58609231          -0.14931151         0.54689982          0.0     
Ir37 Ir   1.0     0.33911             0.35546             0.05551             0.0     
Ir38 Ir   1.0     0.83911             0.35546             0.05551             0.0     
Ir39 Ir   1.0     0.08911             -0.14454            0.05551             0.0     
Ir40 Ir   1.0     0.58911             -0.14454            0.05551             0.0     
Ir41 Ir   1.0     0.08911             0.35546             0.20047             0.0     
Ir42 Ir   1.0     0.58911             0.35546             0.20047             0.0     
Ir43 Ir   1.0     0.33911             -0.14454            0.20047             0.0     
Ir44 Ir   1.0     0.83911             -0.14454            0.20047             0.0     
Ir45 Ir   1.0     0.8360684           0.35346665          0.34506178          0.0     
Ir46 Ir   1.0     0.34097219          0.3534771           0.34511935          0.0     
Ir47 Ir   1.0     0.08820104          -0.14639312         0.34651086          0.0     
Ir48 Ir   1.0     0.58825174          -0.14651111         0.34666114          0.0     
Ir49 Ir   1.0     0.08560186          0.35234216          0.48852883          0.0     
Ir50 Ir   1.0     0.58537173          0.35260609          0.49612837          0.0     
Ir51 Ir   1.0     0.83629652          -0.1478694          0.49339819          0.0     
Ir52 Ir   1.0     0.33645537          -0.1478119          0.49316585          0.0     
