data_HOCrIr
_audit_creation_method        'pos2cif.py by jyxu'
_cell_length_a                6.36215693          
_cell_length_b                6.384483            
_cell_length_c                27.02159841         
_cell_angle_alpha             90.0                
_cell_angle_beta              90.0                
_cell_angle_gamma             90.0                
_symmetry_space_group_H-M     'P1'                
_symmetry_Int_Tables_number   '1'                 
_symmetry_cell_setting        'triclinic'         
loop_                         
_symmetry_equiv_pos_as_xyz    
x,y,z                         

loop_                         
_atom_site_label              
_atom_site_type_symbol        
_atom_site_occupancy          
_atom_site_fract_x            
_atom_site_fract_y            
_atom_site_fract_z            
_atom_site_U_iso_or_equiv     
H1        H         1.0     0.50001079          -6e-08              0.48246504          0.0     
O1        O         1.0     0.0                 0.5                 0.0                 0.0     
O2        O         1.0     0.5                 0.5                 0.0                 0.0     
O3        O         1.0     0.25                0.19147             0.04524             0.0     
O4        O         1.0     0.75                0.19147             0.04524             0.0     
O5        O         1.0     0.25                0.80853             0.04524             0.0     
O6        O         1.0     0.75                0.80853             0.04524             0.0     
O7        O         1.0     0.0                 0.5                 0.09048             0.0     
O8        O         1.0     0.5                 0.5                 0.09048             0.0     
O9        O         1.0     0.5                 0.0                 0.11814             0.0     
O10       O         1.0     0.0                 0.0                 0.11814             0.0     
O11       O         1.0     0.25                0.30853             0.16338             0.0     
O12       O         1.0     0.75                0.30853             0.16338             0.0     
O13       O         1.0     0.25                0.69147             0.16338             0.0     
O14       O         1.0     0.75                0.69147             0.16338             0.0     
O15       O         1.0     0.0                 0.0                 0.20862             0.0     
O16       O         1.0     0.5                 0.0                 0.20862             0.0     
O17       O         1.0     4e-08               0.5                 0.23630475          0.0     
O18       O         1.0     0.5000001           0.5                 0.23606628          0.0     
O19       O         1.0     0.25055208          0.19139095          0.28220282          0.0     
O20       O         1.0     0.74944861          0.19139059          0.28220284          0.0     
O21       O         1.0     0.25055208          0.80860905          0.2822028           0.0     
O22       O         1.0     0.7494486           0.80860941          0.28220282          0.0     
O23       O         1.0     3e-08               0.50000003          0.32634267          0.0     
O24       O         1.0     0.5                 0.49999999          0.32687609          0.0     
O25       O         1.0     7.9e-07             -2e-08              0.35486899          0.0     
O26       O         1.0     0.49999942          -1e-08              0.35571369          0.0     
O27       O         1.0     0.25728757          0.3120528           0.40245383          0.0     
O28       O         1.0     0.74271238          0.31205262          0.40245365          0.0     
O29       O         1.0     0.2572876           0.68794716          0.40245384          0.0     
O30       O         1.0     0.74271238          0.68794737          0.40245367          0.0     
O31       O         1.0     1e-07               0.0                 0.44527349          0.0     
O32       O         1.0     0.50000264          1e-08               0.44659222          0.0     
Cr1       Cr        1.0     0.49999982          0.49999996          0.39450355          0.0     
Ir1       Ir        1.0     0.0                 0.0                 0.04524             0.0     
Ir2       Ir        1.0     0.5                 0.0                 0.04524             0.0     
Ir3       Ir        1.0     0.25                0.5                 0.04524             0.0     
Ir4       Ir        1.0     0.75                0.5                 0.04524             0.0     
Ir5       Ir        1.0     0.25                0.0                 0.16338             0.0     
Ir6       Ir        1.0     0.75                0.0                 0.16338             0.0     
Ir7       Ir        1.0     0.0                 0.5                 0.16338             0.0     
Ir8       Ir        1.0     0.5                 0.5                 0.16338             0.0     
Ir9       Ir        1.0     0.25086646          0.5                 0.28142398          0.0     
Ir10      Ir        1.0     0.74913377          0.5                 0.281424            0.0     
Ir11      Ir        1.0     0.50000016          -0.0                0.28244902          0.0     
Ir12      Ir        1.0     4.3e-07             -0.0                0.28175709          0.0     
Ir13      Ir        1.0     -2.5e-07            0.49999999          0.3977548           0.0     
Ir14      Ir        1.0     0.24406468          -2e-08              0.4007386           0.0     
Ir15      Ir        1.0     0.75593614          -2e-08              0.40073823          0.0     
