data_HOMnRu
_audit_creation_method        'pos2cif.py by jyxu'
_cell_length_a                6.22358237          
_cell_length_b                6.35872035          
_cell_length_c                22.00806186         
_cell_angle_alpha             90.0                
_cell_angle_beta              90.0                
_cell_angle_gamma             90.0                
_symmetry_space_group_H-M     'P1'                
_symmetry_Int_Tables_number   '1'                 
_symmetry_cell_setting        'triclinic'         
loop_                         
_symmetry_equiv_pos_as_xyz    
x,y,z                         

loop_                         
_atom_site_label              
_atom_site_type_symbol        
_atom_site_occupancy          
_atom_site_fract_x            
_atom_site_fract_y            
_atom_site_fract_z            
_atom_site_U_iso_or_equiv     
H1        H         1.0     0.58887583          0.27348227          0.59568212          0.0     
O1        O         1.0     0.08911189          0.77346319          0.0                 0.0     
O2        O         1.0     0.58911189          0.77346319          0.0                 0.0     
O3        O         1.0     0.33911189          0.07924319          0.05611538          0.0     
O4        O         1.0     0.83911189          0.07924319          0.05611538          0.0     
O5        O         1.0     0.33911189          0.46768319          0.05611538          0.0     
O6        O         1.0     0.83911189          0.46768319          0.05611538          0.0     
O7        O         1.0     0.08911189          0.77346319          0.11223075          0.0     
O8        O         1.0     0.58911189          0.77346319          0.11223075          0.0     
O9        O         1.0     0.08911189          0.27346319          0.14446343          0.0     
O10       O         1.0     0.58911189          0.27346319          0.14446343          0.0     
O11       O         1.0     0.83911189          0.57924319          0.20057881          0.0     
O12       O         1.0     0.33911189          0.57924319          0.20057881          0.0     
O13       O         1.0     0.33911189          -0.03231681         0.20057881          0.0     
O14       O         1.0     0.83911189          -0.03231681         0.20057881          0.0     
O15       O         1.0     0.08911189          0.27346319          0.25669419          0.0     
O16       O         1.0     0.58911189          0.27346319          0.25669419          0.0     
O17       O         1.0     0.0890365           0.77339606          0.28786675          0.0     
O18       O         1.0     0.58904423          0.7734438           0.2886457           0.0     
O19       O         1.0     0.33903445          0.0793561           0.34557719          0.0     
O20       O         1.0     0.83898793          0.0793514           0.34557423          0.0     
O21       O         1.0     0.33906688          0.4673553           0.34555118          0.0     
O22       O         1.0     0.83901784          0.46735747          0.34554797          0.0     
O23       O         1.0     0.08901244          0.77349114          0.40065532          0.0     
O24       O         1.0     0.58900363          0.77345236          0.39925042          0.0     
O25       O         1.0     0.08897925          0.27361591          0.43591666          0.0     
O26       O         1.0     0.5889751           0.27368181          0.43391756          0.0     
O27       O         1.0     0.34450378          0.58480479          0.49507963          0.0     
O28       O         1.0     0.83342751          0.58480115          0.49507276          0.0     
O29       O         1.0     0.34457757          0.96267288          0.49508296          0.0     
O30       O         1.0     0.83336563          0.96268843          0.49503525          0.0     
O31       O         1.0     0.08895993          0.27377401          0.5419596           0.0     
O32       O         1.0     0.5889522           0.27404013          0.55165982          0.0     
Mn1       Mn        1.0     0.58898906          0.7737012           0.48504273          0.0     
Ru1       Ru        1.0     0.08911189          0.27346319          0.05611538          0.0     
Ru2       Ru        1.0     0.58911189          0.27346319          0.05611538          0.0     
Ru3       Ru        1.0     0.33911189          0.77346319          0.05611538          0.0     
Ru4       Ru        1.0     0.83911189          0.77346319          0.05611538          0.0     
Ru5       Ru        1.0     0.33911189          0.27346319          0.20057881          0.0     
Ru6       Ru        1.0     0.83911189          0.27346319          0.20057881          0.0     
Ru7       Ru        1.0     0.08911189          0.77346319          0.20057881          0.0     
Ru8       Ru        1.0     0.58911189          0.77346319          0.20057881          0.0     
Ru9       Ru        1.0     0.33870706          0.77336126          0.34428817          0.0     
Ru10      Ru        1.0     0.8393172           0.77336096          0.34428637          0.0     
Ru11      Ru        1.0     0.08902499          0.2733638           0.34617448          0.0     
Ru12      Ru        1.0     0.58901891          0.27336744          0.34564408          0.0     
Ru13      Ru        1.0     0.08898587          0.77371542          0.48595391          0.0     
Ru14      Ru        1.0     0.33764819          0.27372599          0.49214632          0.0     
Ru15      Ru        1.0     0.84027283          0.27373949          0.49213572          0.0     
