data_OMo
_audit_creation_method           'pos2cif.pl'
_cell_length_a               5.45982775
_cell_length_b               6.98349398051841
_cell_length_c               23.5133401805316
_cell_angle_alpha            90
_cell_angle_beta             90
_cell_angle_gamma            90
_symmetry_space_group_H-M        'P1'
_symmetry_Int_Tables_number      '1'
_symmetry_cell_setting           'triclinic'
loop_
_symmetry_equiv_pos_as_xyz
x,y,z

loop_
_atom_site_label
_atom_site_type_symbol
_atom_site_occupancy
_atom_site_fract_x
_atom_site_fract_y
_atom_site_fract_z
_atom_site_U_iso_or_equiv
O1  O  1.0000  0.13081  0.56970  0.00000  0.0000
O2  O  1.0000  0.63081  0.56970  0.00000  0.0000
O3  O  1.0000  0.38081  0.28722  0.06460  0.0000
O4  O  1.0000  0.88081  0.28722  0.06460  0.0000
O5  O  1.0000  0.38081  0.85218  0.06460  0.0000
O6  O  1.0000  0.88081  0.85218  0.06460  0.0000
O7  O  1.0000  0.13081  0.56970  0.12921  0.0000
O8  O  1.0000  0.63081  0.56970  0.12921  0.0000
O9  O  1.0000  0.13081  0.06970  0.14850  0.0000
O10  O  1.0000  0.63081  0.06970  0.14850  0.0000
O11  O  1.0000  0.38081  0.35218  0.21310  0.0000
O12  O  1.0000  0.88081  0.35218  0.21310  0.0000
O13  O  1.0000  0.38081  0.78722  0.21310  0.0000
O14  O  1.0000  0.88081  0.78722  0.21310  0.0000
O15  O  1.0000  0.13081  0.06970  0.27771  0.0000
O16  O  1.0000  0.63081  0.06970  0.27771  0.0000
O17  O  1.0000  0.13019  0.56979  0.29963  0.0000
O18  O  1.0000  0.63025  0.56978  0.29505  0.0000
O19  O  1.0000  0.37624  0.29277  0.36276  0.0000
O20  O  1.0000  0.87383  0.27882  0.36270  0.0000
O21  O  1.0000  0.37621  0.84678  0.36278  0.0000
O22  O  1.0000  0.87381  0.86073  0.36275  0.0000
O23  O  1.0000  0.12335  0.56972  0.42243  0.0000
O24  O  1.0000  0.63736  0.56978  0.42707  0.0000
O25  O  1.0000  0.13865  0.06992  0.45036  0.0000
O26  O  1.0000  0.62414  0.06981  0.44690  0.0000
O27  O  1.0000  0.38819  0.37167  0.51532  0.0000
O28  O  1.0000  0.88759  0.34832  0.51175  0.0000
O29  O  1.0000  0.38821  0.76792  0.51521  0.0000
O30  O  1.0000  0.88759  0.79117  0.51177  0.0000
O31  O  1.0000  0.13225  0.06961  0.57007  0.0000
O32  O  1.0000  0.62734  0.06975  0.57899  0.0000
Mo1  Mo  1.0000  0.13081  0.06970  0.06460  0.0000
Mo2  Mo  1.0000  0.63081  0.06970  0.06460  0.0000
Mo3  Mo  1.0000  0.38081  0.56970  0.06460  0.0000
Mo4  Mo  1.0000  0.88081  0.56970  0.06460  0.0000
Mo5  Mo  1.0000  0.38081  0.06970  0.21310  0.0000
Mo6  Mo  1.0000  0.88081  0.06970  0.21310  0.0000
Mo7  Mo  1.0000  0.13081  0.56970  0.21310  0.0000
Mo8  Mo  1.0000  0.63081  0.56970  0.21310  0.0000
Mo9  Mo  1.0000  0.14727  0.06978  0.36514  0.0000
Mo10  Mo  1.0000  0.60734  0.06978  0.36361  0.0000
Mo11  Mo  1.0000  0.40423  0.56976  0.36056  0.0000
Mo12  Mo  1.0000  0.86262  0.56977  0.35946  0.0000
Mo13  Mo  1.0000  0.39977  0.06967  0.51664  0.0000
Mo14  Mo  1.0000  0.85880  0.06974  0.51437  0.0000
Mo15  Mo  1.0000  0.11391  0.56975  0.50241  0.0000
Mo16  Mo  1.0000  0.66195  0.56975  0.50584  0.0000
