data_OIr
_audit_creation_method           'pos2cif.pl'
_cell_length_a               6.36215693
_cell_length_b               6.38448299480951
_cell_length_c               22.0215984124354
_cell_angle_alpha            90
_cell_angle_beta             90
_cell_angle_gamma            90
_symmetry_space_group_H-M        'P1'
_symmetry_Int_Tables_number      '1'
_symmetry_cell_setting           'triclinic'
loop_
_symmetry_equiv_pos_as_xyz
x,y,z

loop_
_atom_site_label
_atom_site_type_symbol
_atom_site_occupancy
_atom_site_fract_x
_atom_site_fract_y
_atom_site_fract_z
_atom_site_U_iso_or_equiv
O1  O  1.0000  0.08911  0.35546  0.00000  0.0000
O2  O  1.0000  0.58911  0.35546  0.00000  0.0000
O3  O  1.0000  0.33911  0.04693  0.05551  0.0000
O4  O  1.0000  0.83911  0.04693  0.05551  0.0000
O5  O  1.0000  0.33911  0.66399  0.05551  0.0000
O6  O  1.0000  0.83911  0.66399  0.05551  0.0000
O7  O  1.0000  0.08911  0.35546  0.11102  0.0000
O8  O  1.0000  0.58911  0.35546  0.11102  0.0000
O9  O  1.0000  0.08911  0.85546  0.14496  0.0000
O10  O  1.0000  0.58911  0.85546  0.14496  0.0000
O11  O  1.0000  0.33911  0.16399  0.20047  0.0000
O12  O  1.0000  0.83911  0.16399  0.20047  0.0000
O13  O  1.0000  0.33911  0.54693  0.20047  0.0000
O14  O  1.0000  0.83911  0.54693  0.20047  0.0000
O15  O  1.0000  0.08911  0.85546  0.25598  0.0000
O16  O  1.0000  0.58911  0.85546  0.25598  0.0000
O17  O  1.0000  0.08914  0.35542  0.28947  0.0000
O18  O  1.0000  0.58914  0.35542  0.28947  0.0000
O19  O  1.0000  0.33913  0.04670  0.34597  0.0000
O20  O  1.0000  0.83913  0.04670  0.34597  0.0000
O21  O  1.0000  0.33911  0.66418  0.34595  0.0000
O22  O  1.0000  0.83911  0.66418  0.34595  0.0000
O23  O  1.0000  0.08916  0.35571  0.39990  0.0000
O24  O  1.0000  0.58916  0.35571  0.39990  0.0000
O25  O  1.0000  0.08915  0.85549  0.43609  0.0000
O26  O  1.0000  0.58915  0.85549  0.43609  0.0000
O27  O  1.0000  0.33914  0.16538  0.49406  0.0000
O28  O  1.0000  0.83914  0.16538  0.49406  0.0000
O29  O  1.0000  0.33915  0.54556  0.49405  0.0000
O30  O  1.0000  0.83915  0.54556  0.49405  0.0000
O31  O  1.0000  0.08915  0.85548  0.54665  0.0000
O32  O  1.0000  0.58915  0.85548  0.54665  0.0000
Ir1  Ir  1.0000  0.33911  0.35546  0.05551  0.0000
Ir2  Ir  1.0000  0.83911  0.35546  0.05551  0.0000
Ir3  Ir  1.0000  0.08911  0.85546  0.05551  0.0000
Ir4  Ir  1.0000  0.58911  0.85546  0.05551  0.0000
Ir5  Ir  1.0000  0.08911  0.35546  0.20047  0.0000
Ir6  Ir  1.0000  0.58911  0.35546  0.20047  0.0000
Ir7  Ir  1.0000  0.33911  0.85546  0.20047  0.0000
Ir8  Ir  1.0000  0.83911  0.85546  0.20047  0.0000
Ir9  Ir  1.0000  0.33914  0.35543  0.34488  0.0000
Ir10  Ir  1.0000  0.83914  0.35543  0.34488  0.0000
Ir11  Ir  1.0000  0.08911  0.85543  0.34634  0.0000
Ir12  Ir  1.0000  0.58911  0.85543  0.34634  0.0000
Ir13  Ir  1.0000  0.08913  0.35545  0.48811  0.0000
Ir14  Ir  1.0000  0.58913  0.35545  0.48811  0.0000
Ir15  Ir  1.0000  0.33915  0.85545  0.49288  0.0000
Ir16  Ir  1.0000  0.83915  0.85545  0.49288  0.0000
