data_HCOMoOs
_audit_creation_method        'pos2cif.py'        
_cell_length_a                5.45982775          
_cell_length_b                6.983493980518405   
_cell_length_c                23.513340180531582  
_cell_angle_alpha             90.0                
_cell_angle_beta              90.0                
_cell_angle_gamma             90.0                
_symmetry_space_group_H-M     'P1'                
_symmetry_Int_Tables_number   '1'                 
_symmetry_cell_setting        'triclinic'         
loop_                         
_symmetry_equiv_pos_as_xyz    
x,y,z                         

loop_                         
_atom_site_label              
_atom_site_type_symbol        
_atom_site_occupancy          
_atom_site_fract_x            
_atom_site_fract_y            
_atom_site_fract_z            
_atom_site_U_iso_or_equiv     
H1   H    1.0     0.47099319          0.5700843           0.61637704          0.0     
H2   H    1.0     0.75038076          0.44019004          0.61774405          0.0     
H3   H    1.0     0.75048839          0.69987266          0.61767207          0.0     
C4   C    1.0     0.66165518          0.57007318          0.60105342          0.0     
O5   O    1.0     0.13081166          0.5696981           0.0                 0.0     
O6   O    1.0     0.63081166          0.5696981           0.0                 0.0     
O7   O    1.0     0.38081166          0.2872181           0.06460374          0.0     
O8   O    1.0     0.88081166          0.2872181           0.06460374          0.0     
O9   O    1.0     0.38081166          0.8521781           0.06460374          0.0     
O10  O    1.0     0.88081166          0.8521781           0.06460374          0.0     
O11  O    1.0     0.13081166          0.5696981           0.12920747          0.0     
O12  O    1.0     0.63081166          0.5696981           0.12920747          0.0     
O13  O    1.0     0.13081166          0.0696981           0.14850068          0.0     
O14  O    1.0     0.63081166          0.0696981           0.14850068          0.0     
O15  O    1.0     0.38081166          0.3521781           0.21310441          0.0     
O16  O    1.0     0.88081166          0.3521781           0.21310441          0.0     
O17  O    1.0     0.38081166          0.7872181           0.21310441          0.0     
O18  O    1.0     0.88081166          0.7872181           0.21310441          0.0     
O19  O    1.0     0.13081166          0.0696981           0.27770815          0.0     
O20  O    1.0     0.63081166          0.0696981           0.27770815          0.0     
O21  O    1.0     0.13380693          0.56977384          0.2953712           0.0     
O22  O    1.0     0.62866023          0.56972706          0.29974987          0.0     
O23  O    1.0     0.37277864          0.27870121          0.36195806          0.0     
O24  O    1.0     0.88045098          0.2916925           0.36138324          0.0     
O25  O    1.0     0.37269469          0.8609791           0.36198209          0.0     
O26  O    1.0     0.88057666          0.84793174          0.36137716          0.0     
O27  O    1.0     0.12564679          0.56980507          0.42780232          0.0     
O28  O    1.0     0.62982523          0.56997279          0.41881121          0.0     
O29  O    1.0     0.12467486          0.07023395          0.4494574           0.0     
O30  O    1.0     0.62390273          0.06941071          0.44505424          0.0     
O31  O    1.0     0.37989156          0.37550373          0.51384277          0.0     
O32  O    1.0     0.87706493          0.34810672          0.50988772          0.0     
O33  O    1.0     0.38042788          0.76504686          0.51379506          0.0     
O34  O    1.0     0.87748753          0.79103594          0.50995337          0.0     
O35  O    1.0     0.12547107          0.06962951          0.56784784          0.0     
O36  O    1.0     0.61592776          0.0713214           0.57739535          0.0     
Mo37 Mo   1.0     0.13081166          0.0696981           0.06460374          0.0     
Mo38 Mo   1.0     0.63081166          0.0696981           0.06460374          0.0     
Mo39 Mo   1.0     0.38081166          0.5696981           0.06460374          0.0     
Mo40 Mo   1.0     0.88081166          0.5696981           0.06460374          0.0     
Mo41 Mo   1.0     0.38081166          0.0696981           0.21310441          0.0     
Mo42 Mo   1.0     0.88081166          0.0696981           0.21310441          0.0     
Mo43 Mo   1.0     0.13081166          0.5696981           0.21310441          0.0     
Mo44 Mo   1.0     0.63081166          0.5696981           0.21310441          0.0     
Mo45 Mo   1.0     0.10952709          0.06984378          0.36417788          0.0     
Mo46 Mo   1.0     0.64906634          0.06984443          0.36256392          0.0     
Mo47 Mo   1.0     0.3660933           0.56969972          0.36144528          0.0     
Mo48 Mo   1.0     0.90011981          0.56989302          0.36039052          0.0     
Mo49 Mo   1.0     0.39379297          0.06779616          0.51363477          0.0     
Mo50 Mo   1.0     0.84984886          0.06967871          0.51375393          0.0     
Mo51 Mo   1.0     0.10107542          0.5693154           0.50639481          0.0     
Os52 Os   1.0     0.65345142          0.56961691          0.51205044          0.0     
