data_HCOOsMo
_audit_creation_method        'pos2cif.py'        
_cell_length_a                6.42203989          
_cell_length_b                6.362755526754089   
_cell_length_c                21.98514082118345   
_cell_angle_alpha             90.0                
_cell_angle_beta              90.0                
_cell_angle_gamma             90.0                
_symmetry_space_group_H-M     'P1'                
_symmetry_Int_Tables_number   '1'                 
_symmetry_cell_setting        'triclinic'         
loop_                         
_symmetry_equiv_pos_as_xyz    
x,y,z                         

loop_                         
_atom_site_label              
_atom_site_type_symbol        
_atom_site_occupancy          
_atom_site_fract_x            
_atom_site_fract_y            
_atom_site_fract_z            
_atom_site_U_iso_or_equiv     
H1   H    1.0     0.46907811          0.56969316          0.61165258          0.0     
H2   H    1.0     0.70928101          0.42855882          0.61061281          0.0     
H3   H    1.0     0.70937831          0.71094995          0.61068495          0.0     
C4   C    1.0     0.62893923          0.56987615          0.5937608           0.0     
O5   O    1.0     0.13081166          0.5696981           0.0                 0.0     
O6   O    1.0     0.63081166          0.5696981           0.0                 0.0     
O7   O    1.0     0.38081166          0.2615181           0.05551494          0.0     
O8   O    1.0     0.88081166          0.2615181           0.05551494          0.0     
O9   O    1.0     0.38081166          0.8778781           0.05551494          0.0     
O10  O    1.0     0.88081166          0.8778781           0.05551494          0.0     
O11  O    1.0     0.13081166          0.5696981           0.11102988          0.0     
O12  O    1.0     0.63081166          0.5696981           0.11102988          0.0     
O13  O    1.0     0.13081166          0.0696981           0.14470582          0.0     
O14  O    1.0     0.63081166          0.0696981           0.14470582          0.0     
O15  O    1.0     0.38081166          0.3778781           0.20022076          0.0     
O16  O    1.0     0.88081166          0.3778781           0.20022076          0.0     
O17  O    1.0     0.38081166          0.7615181           0.20022076          0.0     
O18  O    1.0     0.88081166          0.7615181           0.20022076          0.0     
O19  O    1.0     0.13081166          0.0696981           0.2557357           0.0     
O20  O    1.0     0.63081166          0.0696981           0.2557357           0.0     
O21  O    1.0     0.13086574          0.56967413          0.28904218          0.0     
O22  O    1.0     0.63101476          0.56967827          0.2889531           0.0     
O23  O    1.0     0.38122065          0.26061751          0.34535987          0.0     
O24  O    1.0     0.88056141          0.26061575          0.34540322          0.0     
O25  O    1.0     0.38119848          0.87876763          0.34535293          0.0     
O26  O    1.0     0.88053728          0.87875436          0.34540368          0.0     
O27  O    1.0     0.13131895          0.56969411          0.39788644          0.0     
O28  O    1.0     0.63048778          0.56971884          0.40053637          0.0     
O29  O    1.0     0.13095073          0.06965691          0.43477411          0.0     
O30  O    1.0     0.63062072          0.06964779          0.43474392          0.0     
O31  O    1.0     0.37960215          0.37918627          0.49334858          0.0     
O32  O    1.0     0.88354201          0.37925641          0.49317366          0.0     
O33  O    1.0     0.37962698          0.76027241          0.4933529           0.0     
O34  O    1.0     0.88357619          0.76020007          0.49321828          0.0     
O35  O    1.0     0.13080257          0.06977207          0.54337621          0.0     
O36  O    1.0     0.63081944          0.06974045          0.54222936          0.0     
Os37 Os   1.0     0.13081166          0.0696981           0.05551494          0.0     
Os38 Os   1.0     0.63081166          0.0696981           0.05551494          0.0     
Os39 Os   1.0     0.38081166          0.5696981           0.05551494          0.0     
Os40 Os   1.0     0.88081166          0.5696981           0.05551494          0.0     
Os41 Os   1.0     0.38081166          0.0696981           0.20022076          0.0     
Os42 Os   1.0     0.88081166          0.0696981           0.20022076          0.0     
Os43 Os   1.0     0.13081166          0.5696981           0.20022076          0.0     
Os44 Os   1.0     0.63081166          0.5696981           0.20022076          0.0     
Os45 Os   1.0     0.13088733          0.06967349          0.34583539          0.0     
Os46 Os   1.0     0.63084999          0.06967672          0.34564584          0.0     
Os47 Os   1.0     0.38363137          0.56969295          0.34451789          0.0     
Os48 Os   1.0     0.87828423          0.56968049          0.34454925          0.0     
Os49 Os   1.0     0.38000807          0.06970837          0.49364037          0.0     
Os50 Os   1.0     0.88146761          0.06971487          0.49347273          0.0     
Os51 Os   1.0     0.13158058          0.56972694          0.48486058          0.0     
Mo52 Mo   1.0     0.63143733          0.56970075          0.49623907          0.0     
