data_HCORhTi
_audit_creation_method        'pos2cif.py'        
_cell_length_a                6.19967903          
_cell_length_b                6.358847884975625   
_cell_length_c                21.99571219484141   
_cell_angle_alpha             90.0                
_cell_angle_beta              90.0                
_cell_angle_gamma             90.0                
_symmetry_space_group_H-M     'P1'                
_symmetry_Int_Tables_number   '1'                 
_symmetry_cell_setting        'triclinic'         
loop_                         
_symmetry_equiv_pos_as_xyz    
x,y,z                         

loop_                         
_atom_site_label              
_atom_site_type_symbol        
_atom_site_occupancy          
_atom_site_fract_x            
_atom_site_fract_y            
_atom_site_fract_z            
_atom_site_U_iso_or_equiv     
H1   H    1.0     0.80593416          0.57053599          0.61141799          0.0     
H2   H    1.0     0.54599593          0.4214894           0.60822125          0.0     
H3   H    1.0     0.54588451          0.71937412          0.60824197          0.0     
C4   C    1.0     0.63207399          0.57048624          0.60471871          0.0     
O5   O    1.0     0.13081166          0.5696981           0.0                 0.0     
O6   O    1.0     0.63081166          0.5696981           0.0                 0.0     
O7   O    1.0     0.38081166          0.2629281           0.0558618           0.0     
O8   O    1.0     0.88081166          0.2629281           0.0558618           0.0     
O9   O    1.0     0.38081166          0.8764681           0.0558618           0.0     
O10  O    1.0     0.88081166          0.8764681           0.0558618           0.0     
O11  O    1.0     0.13081166          0.5696981           0.11172361          0.0     
O12  O    1.0     0.63081166          0.5696981           0.11172361          0.0     
O13  O    1.0     0.13081166          0.0696981           0.14454744          0.0     
O14  O    1.0     0.63081166          0.0696981           0.14454744          0.0     
O15  O    1.0     0.38081166          0.3764681           0.20040925          0.0     
O16  O    1.0     0.88081166          0.3764681           0.20040925          0.0     
O17  O    1.0     0.38081166          0.7629281           0.20040925          0.0     
O18  O    1.0     0.88081166          0.7629281           0.20040925          0.0     
O19  O    1.0     0.13081166          0.0696981           0.25627105          0.0     
O20  O    1.0     0.63081166          0.0696981           0.25627105          0.0     
O21  O    1.0     0.13081411          0.56975986          0.28871001          0.0     
O22  O    1.0     0.63074027          0.56966782          0.2883481           0.0     
O23  O    1.0     0.38112403          0.26298872          0.34598818          0.0     
O24  O    1.0     0.88035928          0.2630685           0.34590742          0.0     
O25  O    1.0     0.38108986          0.87610237          0.34599868          0.0     
O26  O    1.0     0.88026653          0.87618994          0.34592639          0.0     
O27  O    1.0     0.13048877          0.57013811          0.39979909          0.0     
O28  O    1.0     0.63088986          0.56968581          0.40085236          0.0     
O29  O    1.0     0.13001978          0.06976773          0.43555838          0.0     
O30  O    1.0     0.63043272          0.06978562          0.43541818          0.0     
O31  O    1.0     0.38516266          0.37924784          0.49325697          0.0     
O32  O    1.0     0.87473096          0.37917017          0.49369213          0.0     
O33  O    1.0     0.38525376          0.76044588          0.49331335          0.0     
O34  O    1.0     0.87473976          0.76061375          0.49372565          0.0     
O35  O    1.0     0.13027748          0.07008326          0.5469257           0.0     
O36  O    1.0     0.62958542          0.07004352          0.54705893          0.0     
Rh37 Rh   1.0     0.13081166          0.0696981           0.0558618           0.0     
Rh38 Rh   1.0     0.63081166          0.0696981           0.0558618           0.0     
Rh39 Rh   1.0     0.38081166          0.5696981           0.0558618           0.0     
Rh40 Rh   1.0     0.88081166          0.5696981           0.0558618           0.0     
Rh41 Rh   1.0     0.38081166          0.0696981           0.20040925          0.0     
Rh42 Rh   1.0     0.88081166          0.0696981           0.20040925          0.0     
Rh43 Rh   1.0     0.13081166          0.5696981           0.20040925          0.0     
Rh44 Rh   1.0     0.63081166          0.5696981           0.20040925          0.0     
Rh45 Rh   1.0     0.13070031          0.06957457          0.3464594           0.0     
Rh46 Rh   1.0     0.63075566          0.06957747          0.34631947          0.0     
Rh47 Rh   1.0     0.38159909          0.56951972          0.34404388          0.0     
Rh48 Rh   1.0     0.87987617          0.56959464          0.34399856          0.0     
Rh49 Rh   1.0     0.37872106          0.06983187          0.49219114          0.0     
Rh50 Rh   1.0     0.88135171          0.0698115           0.49241254          0.0     
Rh51 Rh   1.0     0.12990056          0.56983081          0.48567653          0.0     
Ti52 Ti   1.0     0.63026426          0.56981424          0.48611406          0.0     
