data_HCOV
_audit_creation_method        'pos2cif.py'        
_cell_length_a                5.64711014          
_cell_length_b                6.45014784          
_cell_length_c                22.26727818         
_cell_angle_alpha             90.0                
_cell_angle_beta              90.0                
_cell_angle_gamma             90.0                
_symmetry_space_group_H-M     'P1'                
_symmetry_Int_Tables_number   '1'                 
_symmetry_cell_setting        'triclinic'         
loop_                         
_symmetry_equiv_pos_as_xyz    
x,y,z                         

loop_                         
_atom_site_label              
_atom_site_type_symbol        
_atom_site_occupancy          
_atom_site_fract_x            
_atom_site_fract_y            
_atom_site_fract_z            
_atom_site_U_iso_or_equiv     
H1   H    1.0     0.41280757          0.66269231          0.58935599          0.0     
H2   H    1.0     0.41500518          0.27622456          0.56663381          0.0     
H3   H    1.0     0.25235898          0.45416819          0.62014406          0.0     
H4   H    1.0     0.57411471          0.4556306           0.62075469          0.0     
C5   C    1.0     0.41378304          0.49255684          0.5949965           0.0     
O6   O    1.0     0.41591             0.5548              0.0                 0.0     
O7   O    1.0     -0.08409            0.5548              0.0                 0.0     
O8   O    1.0     0.16591             0.25573             0.0582              0.0     
O9   O    1.0     0.66591             0.25573             0.0582              0.0     
O10  O    1.0     0.16591             -0.14613            0.0582              0.0     
O11  O    1.0     0.66591             -0.14613            0.0582              0.0     
O12  O    1.0     0.41591             0.5548              0.11641             0.0     
O13  O    1.0     -0.08409            0.5548              0.11641             0.0     
O14  O    1.0     -0.08409            0.0548              0.14483             0.0     
O15  O    1.0     0.41591             0.0548              0.14483             0.0     
O16  O    1.0     0.16591             0.35387             0.20304             0.0     
O17  O    1.0     0.66591             0.35387             0.20304             0.0     
O18  O    1.0     0.16591             0.75573             0.20304             0.0     
O19  O    1.0     0.66591             0.75573             0.20304             0.0     
O20  O    1.0     0.41591             0.0548              0.26124             0.0     
O21  O    1.0     -0.08409            0.0548              0.26124             0.0     
O22  O    1.0     0.4157915           0.55377099          0.28783449          0.0     
O23  O    1.0     -0.08405697         0.55434635          0.29038894          0.0     
O24  O    1.0     0.16722621          0.25677557          0.34940342          0.0     
O25  O    1.0     0.6664796           0.2569972           0.34939173          0.0     
O26  O    1.0     0.16889878          -0.14627471         0.34788333          0.0     
O27  O    1.0     0.66445224          -0.14648773         0.34781428          0.0     
O28  O    1.0     0.41588066          0.55770188          0.40829785          0.0     
O29  O    1.0     -0.08432284         0.56805315          0.40450622          0.0     
O30  O    1.0     0.4157282           0.05177398          0.43720498          0.0     
O31  O    1.0     -0.08432689         0.04860702          0.43667664          0.0     
O32  O    1.0     0.15088217          0.36243717          0.49386977          0.0     
O33  O    1.0     0.68013034          0.36254637          0.49408852          0.0     
O34  O    1.0     0.16419153          0.75283873          0.5024626           0.0     
O35  O    1.0     0.66665992          0.75269323          0.50272273          0.0     
O36  O    1.0     0.41573274          0.10614346          0.55239173          0.0     
O37  O    1.0     -0.08458991         0.06068865          0.55044825          0.0     
V38  V    1.0     0.41591             0.0548              0.0582              0.0     
V39  V    1.0     -0.08409            0.0548              0.0582              0.0     
V40  V    1.0     0.16591             0.5548              0.0582              0.0     
V41  V    1.0     0.66591             0.5548              0.0582              0.0     
V42  V    1.0     0.16591             0.0548              0.20304             0.0     
V43  V    1.0     0.66591             0.0548              0.20304             0.0     
V44  V    1.0     0.41591             0.5548              0.20304             0.0     
V45  V    1.0     -0.08409            0.5548              0.20304             0.0     
V46  V    1.0     0.17472454          0.55317172          0.34569998          0.0     
V47  V    1.0     0.6554116           0.55322947          0.34583812          0.0     
V48  V    1.0     -0.08505751         0.05380046          0.34872762          0.0     
V49  V    1.0     0.41538856          0.05307147          0.35168307          0.0     
V50  V    1.0     0.41568963          0.55588303          0.49307738          0.0     
V51  V    1.0     -0.08438287         0.56023283          0.48266573          0.0     
V52  V    1.0     0.15961231          0.05784748          0.49712252          0.0     
V53  V    1.0     0.6729725           0.05807282          0.49825324          0.0     
