data_OGe
_audit_creation_method           'pos2cif.pl'
_cell_length_a               5.84467938
_cell_length_b               6.31938021086682
_cell_length_c               21.9292204127642
_cell_angle_alpha            90
_cell_angle_beta             90
_cell_angle_gamma            90
_symmetry_space_group_H-M        'P1'
_symmetry_Int_Tables_number      '1'
_symmetry_cell_setting           'triclinic'
loop_
_symmetry_equiv_pos_as_xyz
x,y,z

loop_
_atom_site_label
_atom_site_type_symbol
_atom_site_occupancy
_atom_site_fract_x
_atom_site_fract_y
_atom_site_fract_z
_atom_site_U_iso_or_equiv
O1  O  1.0000  0.13081  0.56970  0.00000  0.0000
O2  O  1.0000  0.63081  0.56970  0.00000  0.0000
O3  O  1.0000  0.38081  0.26356  0.05586  0.0000
O4  O  1.0000  0.88081  0.26356  0.05586  0.0000
O5  O  1.0000  0.38081  0.87584  0.05586  0.0000
O6  O  1.0000  0.88081  0.87584  0.05586  0.0000
O7  O  1.0000  0.13081  0.56970  0.11173  0.0000
O8  O  1.0000  0.63081  0.56970  0.11173  0.0000
O9  O  1.0000  0.13081  0.06970  0.14409  0.0000
O10  O  1.0000  0.63081  0.06970  0.14409  0.0000
O11  O  1.0000  0.38081  0.37584  0.19995  0.0000
O12  O  1.0000  0.88081  0.37584  0.19995  0.0000
O13  O  1.0000  0.38081  0.76356  0.19995  0.0000
O14  O  1.0000  0.88081  0.76356  0.19995  0.0000
O15  O  1.0000  0.13081  0.06970  0.25582  0.0000
O16  O  1.0000  0.63081  0.06970  0.25582  0.0000
O17  O  1.0000  0.13080  0.56966  0.28744  0.0000
O18  O  1.0000  0.63080  0.56966  0.28744  0.0000
O19  O  1.0000  0.38077  0.26586  0.34398  0.0000
O20  O  1.0000  0.88077  0.26586  0.34398  0.0000
O21  O  1.0000  0.38079  0.87330  0.34398  0.0000
O22  O  1.0000  0.88079  0.87330  0.34398  0.0000
O23  O  1.0000  0.13074  0.56969  0.39852  0.0000
O24  O  1.0000  0.63074  0.56969  0.39852  0.0000
O25  O  1.0000  0.13074  0.06980  0.43377  0.0000
O26  O  1.0000  0.63074  0.06980  0.43377  0.0000
O27  O  1.0000  0.38071  0.38409  0.49564  0.0000
O28  O  1.0000  0.88071  0.38409  0.49564  0.0000
O29  O  1.0000  0.38076  0.75562  0.49560  0.0000
O30  O  1.0000  0.88076  0.75562  0.49560  0.0000
O31  O  1.0000  0.13074  0.06992  0.54743  0.0000
O32  O  1.0000  0.63074  0.06992  0.54743  0.0000
Ge1  Ge  1.0000  0.13081  0.06970  0.05586  0.0000
Ge2  Ge  1.0000  0.63081  0.06970  0.05586  0.0000
Ge3  Ge  1.0000  0.38081  0.56970  0.05586  0.0000
Ge4  Ge  1.0000  0.88081  0.56970  0.05586  0.0000
Ge5  Ge  1.0000  0.38081  0.06970  0.19995  0.0000
Ge6  Ge  1.0000  0.88081  0.06970  0.19995  0.0000
Ge7  Ge  1.0000  0.13081  0.56970  0.19995  0.0000
Ge8  Ge  1.0000  0.63081  0.56970  0.19995  0.0000
Ge9  Ge  1.0000  0.13078  0.06958  0.34694  0.0000
Ge10  Ge  1.0000  0.63078  0.06958  0.34694  0.0000
Ge11  Ge  1.0000  0.38078  0.56956  0.34140  0.0000
Ge12  Ge  1.0000  0.88078  0.56956  0.34140  0.0000
Ge13  Ge  1.0000  0.38073  0.06981  0.49695  0.0000
Ge14  Ge  1.0000  0.88073  0.06981  0.49695  0.0000
Ge15  Ge  1.0000  0.13076  0.56981  0.48228  0.0000
Ge16  Ge  1.0000  0.63076  0.56981  0.48228  0.0000
