data_HCORh
_audit_creation_method        'pos2cif.py by jyxu'
_cell_length_a                6.19967903          
_cell_length_b                6.35884788          
_cell_length_c                21.99571219         
_cell_angle_alpha             90.0                
_cell_angle_beta              90.0                
_cell_angle_gamma             90.0                
_symmetry_space_group_H-M     'P1'                
_symmetry_Int_Tables_number   '1'                 
_symmetry_cell_setting        'triclinic'         
loop_                         
_symmetry_equiv_pos_as_xyz    
x,y,z                         

loop_                         
_atom_site_label              
_atom_site_type_symbol        
_atom_site_occupancy          
_atom_site_fract_x            
_atom_site_fract_y            
_atom_site_fract_z            
_atom_site_U_iso_or_equiv     
H1        H         1.0     0.62055674          0.20018333          0.58499028          0.0     
H2        H         1.0     0.59638016          0.50959833          0.60912962          0.0     
H3        H         1.0     0.44298161          0.30403006          0.64888608          0.0     
H4        H         1.0     0.74127747          0.31947945          0.65728104          0.0     
C1        C         1.0     0.59801432          0.35385892          0.63016054          0.0     
O1        O         1.0     0.13081             0.5697              0.0                 0.0     
O2        O         1.0     0.63081             0.5697              0.0                 0.0     
O3        O         1.0     0.38081             0.26293             0.05586             0.0     
O4        O         1.0     0.88081             0.26293             0.05586             0.0     
O5        O         1.0     0.38081             -0.12353            0.05586             0.0     
O6        O         1.0     0.88081             -0.12353            0.05586             0.0     
O7        O         1.0     0.13081             0.5697              0.11172             0.0     
O8        O         1.0     0.63081             0.5697              0.11172             0.0     
O9        O         1.0     0.63081             0.0697              0.14455             0.0     
O10       O         1.0     0.13081             0.0697              0.14455             0.0     
O11       O         1.0     0.38081             0.37647             0.20041             0.0     
O12       O         1.0     0.88081             0.37647             0.20041             0.0     
O13       O         1.0     0.38081             -0.23707            0.20041             0.0     
O14       O         1.0     0.88081             -0.23707            0.20041             0.0     
O15       O         1.0     0.13081             0.0697              0.25627             0.0     
O16       O         1.0     0.63081             0.0697              0.25627             0.0     
O17       O         1.0     0.13054746          0.57654189          0.28878613          0.0     
O18       O         1.0     0.63049191          0.57747287          0.28865227          0.0     
O19       O         1.0     0.38065659          0.26478644          0.34393093          0.0     
O20       O         1.0     0.88005974          0.2648294           0.34385901          0.0     
O21       O         1.0     0.38025548          -0.12151522         0.3477692           0.0     
O22       O         1.0     0.88043999          -0.12150732         0.34768009          0.0     
O23       O         1.0     0.13018653          0.55205808          0.40038137          0.0     
O24       O         1.0     0.63035711          0.55632928          0.40019873          0.0     
O25       O         1.0     0.1289491           0.08218572          0.43415706          0.0     
O26       O         1.0     0.62955176          0.08187325          0.43539668          0.0     
O27       O         1.0     0.37918632          0.38998069          0.49675933          0.0     
O28       O         1.0     0.8789514           0.39049298          0.49732051          0.0     
O29       O         1.0     0.37817449          0.77192518          0.49324018          0.0     
O30       O         1.0     0.88002512          0.7720793           0.49350659          0.0     
O31       O         1.0     0.12943661          0.08001054          0.54638049          0.0     
O32       O         1.0     0.62832209          0.06583489          0.54944988          0.0     
Rh1       Rh        1.0     0.13081             0.0697              0.05586             0.0     
Rh2       Rh        1.0     0.63081             0.0697              0.05586             0.0     
Rh3       Rh        1.0     0.38081             0.5697              0.05586             0.0     
Rh4       Rh        1.0     0.88081             0.5697              0.05586             0.0     
Rh5       Rh        1.0     0.38081             0.0697              0.20041             0.0     
Rh6       Rh        1.0     0.88081             0.0697              0.20041             0.0     
Rh7       Rh        1.0     0.13081             0.5697              0.20041             0.0     
Rh8       Rh        1.0     0.63081             0.5697              0.20041             0.0     
Rh9       Rh        1.0     0.38046779          0.572268            0.34455269          0.0     
Rh10      Rh        1.0     0.88044238          0.57231927          0.34451972          0.0     
Rh11      Rh        1.0     0.63038389          0.07242769          0.34609397          0.0     
Rh12      Rh        1.0     0.13027254          0.07208168          0.34528005          0.0     
Rh13      Rh        1.0     0.1289648           0.58175336          0.48721378          0.0     
Rh14      Rh        1.0     0.62910442          0.58182749          0.48696574          0.0     
Rh15      Rh        1.0     0.37483058          0.08192776          0.49112584          0.0     
Rh16      Rh        1.0     0.88332041          0.0824961           0.49140252          0.0     
