data_OOs
_audit_creation_method           'pos2cif.pl'
_cell_length_a               6.42203989
_cell_length_b               6.36275552675409
_cell_length_c               21.9851408211834
_cell_angle_alpha            90
_cell_angle_beta             90
_cell_angle_gamma            90
_symmetry_space_group_H-M        'P1'
_symmetry_Int_Tables_number      '1'
_symmetry_cell_setting           'triclinic'
loop_
_symmetry_equiv_pos_as_xyz
x,y,z

loop_
_atom_site_label
_atom_site_type_symbol
_atom_site_occupancy
_atom_site_fract_x
_atom_site_fract_y
_atom_site_fract_z
_atom_site_U_iso_or_equiv
O1  O  1.0000  0.13081  0.56970  0.00000  0.0000
O2  O  1.0000  0.63081  0.56970  0.00000  0.0000
O3  O  1.0000  0.38081  0.26152  0.05551  0.0000
O4  O  1.0000  0.88081  0.26152  0.05551  0.0000
O5  O  1.0000  0.38081  0.87788  0.05551  0.0000
O6  O  1.0000  0.88081  0.87788  0.05551  0.0000
O7  O  1.0000  0.13081  0.56970  0.11103  0.0000
O8  O  1.0000  0.63081  0.56970  0.11103  0.0000
O9  O  1.0000  0.13081  0.06970  0.14471  0.0000
O10  O  1.0000  0.63081  0.06970  0.14471  0.0000
O11  O  1.0000  0.38081  0.37788  0.20022  0.0000
O12  O  1.0000  0.88081  0.37788  0.20022  0.0000
O13  O  1.0000  0.38081  0.76152  0.20022  0.0000
O14  O  1.0000  0.88081  0.76152  0.20022  0.0000
O15  O  1.0000  0.13081  0.06970  0.25574  0.0000
O16  O  1.0000  0.63081  0.06970  0.25574  0.0000
O17  O  1.0000  0.13080  0.56971  0.28912  0.0000
O18  O  1.0000  0.63081  0.56971  0.28912  0.0000
O19  O  1.0000  0.38081  0.26021  0.34545  0.0000
O20  O  1.0000  0.88081  0.26021  0.34545  0.0000
O21  O  1.0000  0.38079  0.87920  0.34545  0.0000
O22  O  1.0000  0.88079  0.87920  0.34545  0.0000
O23  O  1.0000  0.13080  0.56970  0.39903  0.0000
O24  O  1.0000  0.63080  0.56970  0.39903  0.0000
O25  O  1.0000  0.13073  0.06969  0.43483  0.0000
O26  O  1.0000  0.63071  0.06969  0.43483  0.0000
O27  O  1.0000  0.38080  0.38089  0.49200  0.0000
O28  O  1.0000  0.88079  0.38089  0.49200  0.0000
O29  O  1.0000  0.38080  0.75847  0.49200  0.0000
O30  O  1.0000  0.88079  0.75847  0.49200  0.0000
O31  O  1.0000  0.13077  0.06966  0.54338  0.0000
O32  O  1.0000  0.63074  0.06966  0.54338  0.0000
Os1  Os  1.0000  0.13081  0.06970  0.05551  0.0000
Os2  Os  1.0000  0.63081  0.06970  0.05551  0.0000
Os3  Os  1.0000  0.38081  0.56970  0.05551  0.0000
Os4  Os  1.0000  0.88081  0.56970  0.05551  0.0000
Os5  Os  1.0000  0.38081  0.06970  0.20022  0.0000
Os6  Os  1.0000  0.88081  0.06970  0.20022  0.0000
Os7  Os  1.0000  0.13081  0.56970  0.20022  0.0000
Os8  Os  1.0000  0.63081  0.56970  0.20022  0.0000
Os9  Os  1.0000  0.13080  0.06970  0.34569  0.0000
Os10  Os  1.0000  0.63080  0.06970  0.34569  0.0000
Os11  Os  1.0000  0.38080  0.56970  0.34444  0.0000
Os12  Os  1.0000  0.88080  0.56970  0.34444  0.0000
Os13  Os  1.0000  0.38074  0.06967  0.49403  0.0000
Os14  Os  1.0000  0.88074  0.06967  0.49402  0.0000
Os15  Os  1.0000  0.13079  0.56967  0.48583  0.0000
Os16  Os  1.0000  0.63080  0.56967  0.48583  0.0000
