data_HOCrGe
_audit_creation_method        'pos2cif.py by jyxu'
_cell_length_a                5.83042985          
_cell_length_b                6.26569034          
_cell_length_c                21.86019992         
_cell_angle_alpha             90.0                
_cell_angle_beta              90.0                
_cell_angle_gamma             90.0                
_symmetry_space_group_H-M     'P1'                
_symmetry_Int_Tables_number   '1'                 
_symmetry_cell_setting        'triclinic'         
loop_                         
_symmetry_equiv_pos_as_xyz    
x,y,z                         

loop_                         
_atom_site_label              
_atom_site_type_symbol        
_atom_site_occupancy          
_atom_site_fract_x            
_atom_site_fract_y            
_atom_site_fract_z            
_atom_site_U_iso_or_equiv     
H1        H         1.0     0.50000869          0.11574574          0.57929033          0.0     
O1        O         1.0     0.0                 0.5                 0.0                 0.0     
O2        O         1.0     0.5                 0.5                 0.0                 0.0     
O3        O         1.0     0.25                0.19644             0.0563              0.0     
O4        O         1.0     0.75                0.19644             0.0563              0.0     
O5        O         1.0     0.25                0.80356             0.0563              0.0     
O6        O         1.0     0.75                0.80356             0.0563              0.0     
O7        O         1.0     0.0                 0.5                 0.11261             0.0     
O8        O         1.0     0.5                 0.5                 0.11261             0.0     
O9        O         1.0     0.5                 0.0                 0.14331             0.0     
O10       O         1.0     0.0                 0.0                 0.14331             0.0     
O11       O         1.0     0.25                0.30356             0.19962             0.0     
O12       O         1.0     0.75                0.30356             0.19962             0.0     
O13       O         1.0     0.25                0.69644             0.19962             0.0     
O14       O         1.0     0.75                0.69644             0.19962             0.0     
O15       O         1.0     0.0                 0.0                 0.25592             0.0     
O16       O         1.0     0.5                 0.0                 0.25592             0.0     
O17       O         1.0     2e-07               0.49956794          0.28659211          0.0     
O18       O         1.0     0.49999968          0.49970006          0.28630093          0.0     
O19       O         1.0     0.24995569          0.19602262          0.34352282          0.0     
O20       O         1.0     0.75003306          0.19603278          0.3435269           0.0     
O21       O         1.0     0.24986791          0.8023163           0.34401455          0.0     
O22       O         1.0     0.75011729          0.80231483          0.34401795          0.0     
O23       O         1.0     -1.385e-05          0.49798411          0.40018317          0.0     
O24       O         1.0     0.49999762          0.49784693          0.39831557          0.0     
O25       O         1.0     -3.357e-05          0.00352774          0.43210331          0.0     
O26       O         1.0     0.50000539          0.00266693          0.43312258          0.0     
O27       O         1.0     0.25489907          0.31400127          0.49778563          0.0     
O28       O         1.0     0.74505957          0.31400843          0.49778819          0.0     
O29       O         1.0     0.25301338          0.69292813          0.49510451          0.0     
O30       O         1.0     0.74694563          0.69290978          0.4951068           0.0     
O31       O         1.0     -3.215e-05          0.00197419          0.54197604          0.0     
O32       O         1.0     0.50001018          -0.00467649         0.55116176          0.0     
Cr1       Cr        1.0     0.0                 0.0                 0.0563              0.0     
Cr2       Cr        1.0     0.5                 0.0                 0.0563              0.0     
Cr3       Cr        1.0     0.25                0.5                 0.0563              0.0     
Cr4       Cr        1.0     0.75                0.5                 0.0563              0.0     
Cr5       Cr        1.0     0.25                0.0                 0.19962             0.0     
Cr6       Cr        1.0     0.75                0.0                 0.19962             0.0     
Cr7       Cr        1.0     0.0                 0.5                 0.19962             0.0     
Cr8       Cr        1.0     0.5                 0.5                 0.19962             0.0     
Cr9       Cr        1.0     0.24991849          0.49880675          0.34083519          0.0     
Cr10      Cr        1.0     0.7500702           0.4988123           0.34083398          0.0     
Cr11      Cr        1.0     0.49998947          -0.00070988         0.34553856          0.0     
Cr12      Cr        1.0     -7.48e-06           -0.00082236         0.34445546          0.0     
Cr13      Cr        1.0     -2.351e-05          0.50285218          0.48135875          0.0     
Cr14      Cr        1.0     0.24475128          0.00366785          0.49102415          0.0     
Cr15      Cr        1.0     0.75521943          0.00365774          0.49102532          0.0     
Ge1       Ge        1.0     0.49997598          0.50437311          0.4808231           0.0     
