data_HOMnIr
_audit_creation_method        'pos2cif.py by jyxu'
_cell_length_a                5.75095815          
_cell_length_b                6.27405842          
_cell_length_c                21.85759397         
_cell_angle_alpha             90.0                
_cell_angle_beta              90.0                
_cell_angle_gamma             90.0                
_symmetry_space_group_H-M     'P1'                
_symmetry_Int_Tables_number   '1'                 
_symmetry_cell_setting        'triclinic'         
loop_                         
_symmetry_equiv_pos_as_xyz    
x,y,z                         

loop_                         
_atom_site_label              
_atom_site_type_symbol        
_atom_site_occupancy          
_atom_site_fract_x            
_atom_site_fract_y            
_atom_site_fract_z            
_atom_site_U_iso_or_equiv     
H1        H         1.0     0.50000008          0.10887459          0.5791185           0.0     
O1        O         1.0     0.0                 0.5                 0.0                 0.0     
O2        O         1.0     0.5                 0.5                 0.0                 0.0     
O3        O         1.0     0.25                0.19497             0.05596             0.0     
O4        O         1.0     0.75                0.19497             0.05596             0.0     
O5        O         1.0     0.25                0.80503             0.05596             0.0     
O6        O         1.0     0.75                0.80503             0.05596             0.0     
O7        O         1.0     0.0                 0.5                 0.11193             0.0     
O8        O         1.0     0.5                 0.5                 0.11193             0.0     
O9        O         1.0     0.0                 0.0                 0.14352             0.0     
O10       O         1.0     0.5                 0.0                 0.14352             0.0     
O11       O         1.0     0.75                0.30503             0.19949             0.0     
O12       O         1.0     0.25                0.30503             0.19949             0.0     
O13       O         1.0     0.25                0.69497             0.19949             0.0     
O14       O         1.0     0.75                0.69497             0.19949             0.0     
O15       O         1.0     0.0                 0.0                 0.25545             0.0     
O16       O         1.0     0.5                 0.0                 0.25545             0.0     
O17       O         1.0     -2.1e-07            0.49976457          0.28720852          0.0     
O18       O         1.0     0.49999994          0.50012749          0.28753371          0.0     
O19       O         1.0     0.25002619          0.19472904          0.34436549          0.0     
O20       O         1.0     0.74997466          0.19472926          0.34436554          0.0     
O21       O         1.0     0.24955023          0.80352877          0.34577647          0.0     
O22       O         1.0     0.75044971          0.80352872          0.34577625          0.0     
O23       O         1.0     -3.5e-07            0.49665067          0.39908405          0.0     
O24       O         1.0     0.49999846          0.49642674          0.39984171          0.0     
O25       O         1.0     1e-08               0.00791614          0.43274014          0.0     
O26       O         1.0     0.50000008          0.00385504          0.43420277          0.0     
O27       O         1.0     0.23843804          0.30792808          0.49897659          0.0     
O28       O         1.0     0.76156202          0.30792807          0.49897657          0.0     
O29       O         1.0     0.23656842          0.70038675          0.49626242          0.0     
O30       O         1.0     0.7634315           0.70038671          0.49626244          0.0     
O31       O         1.0     -1.1e-07            0.00302762          0.54557413          0.0     
O32       O         1.0     0.49999995          -0.00768545         0.54957771          0.0     
Mn1       Mn        1.0     0.0                 0.0                 0.05596             0.0     
Mn2       Mn        1.0     0.5                 0.0                 0.05596             0.0     
Mn3       Mn        1.0     0.25                0.5                 0.05596             0.0     
Mn4       Mn        1.0     0.75                0.5                 0.05596             0.0     
Mn5       Mn        1.0     0.25                0.0                 0.19949             0.0     
Mn6       Mn        1.0     0.75                0.0                 0.19949             0.0     
Mn7       Mn        1.0     0.0                 0.5                 0.19949             0.0     
Mn8       Mn        1.0     0.5                 0.5                 0.19949             0.0     
Mn9       Mn        1.0     0.24883125          0.49917144          0.34140685          0.0     
Mn10      Mn        1.0     0.7511683           0.49917151          0.34140688          0.0     
Mn11      Mn        1.0     0.50000032          -0.00050974         0.34523996          0.0     
Mn12      Mn        1.0     1.2e-07             -0.00050479         0.34291462          0.0     
Mn13      Mn        1.0     2e-08               0.50304929          0.48260235          0.0     
Mn14      Mn        1.0     0.2399716           0.00389272          0.49086223          0.0     
Mn15      Mn        1.0     0.76002817          0.0038927           0.49086219          0.0     
Ir1       Ir        1.0     0.50000012          0.50530636          0.48608547          0.0     
