data_HOTiMo
_audit_creation_method        'pos2cif.py by jyxu'
_cell_length_a                5.92135997          
_cell_length_b                6.547742919719694   
_cell_length_c                22.386103373860767  
_cell_angle_alpha             90.0                
_cell_angle_beta              90.0                
_cell_angle_gamma             90.0                
_symmetry_space_group_H-M     'P1'                
_symmetry_Int_Tables_number   '1'                 
_symmetry_cell_setting        'triclinic'         
loop_                         
_symmetry_equiv_pos_as_xyz    
x,y,z                         

loop_                         
_atom_site_label              
_atom_site_type_symbol        
_atom_site_occupancy          
_atom_site_fract_x            
_atom_site_fract_y            
_atom_site_fract_z            
_atom_site_U_iso_or_equiv     
H1        H         1.0     0.5894627           0.37361384          0.5931703           0.0     
O1        O         1.0     0.08911189          0.7734632           0.0                 0.0     
O2        O         1.0     0.58911189          0.7734632           0.0                 0.0     
O3        O         1.0     0.33911189          0.0776332           0.05727859          0.0     
O4        O         1.0     0.83911189          0.0776332           0.05727859          0.0     
O5        O         1.0     0.33911189          0.4692932           0.05727859          0.0     
O6        O         1.0     0.83911189          0.4692932           0.05727859          0.0     
O7        O         1.0     0.08911189          0.7734632           0.11455719          0.0     
O8        O         1.0     0.58911189          0.7734632           0.11455719          0.0     
O9        O         1.0     0.08911189          0.2734632           0.1462457           0.0     
O10       O         1.0     0.58911189          0.2734632           0.1462457           0.0     
O11       O         1.0     0.33911189          0.5776332           0.2035243           0.0     
O12       O         1.0     0.83911189          0.5776332           0.2035243           0.0     
O13       O         1.0     0.33911189          -0.0307068          0.2035243           0.0     
O14       O         1.0     0.83911189          -0.0307068          0.2035243           0.0     
O15       O         1.0     0.08911189          0.2734632           0.26080289          0.0     
O16       O         1.0     0.58911189          0.2734632           0.26080289          0.0     
O17       O         1.0     0.08897802          0.77319765          0.29358353          0.0     
O18       O         1.0     0.58908073          0.7739721           0.29388031          0.0     
O19       O         1.0     0.33854348          0.07606306          0.35197773          0.0     
O20       O         1.0     0.83961108          0.07607066          0.35201167          0.0     
O21       O         1.0     0.33985072          0.47026012          0.35136198          0.0     
O22       O         1.0     0.83829869          0.4702675           0.35139513          0.0     
O23       O         1.0     0.08907484          0.77161782          0.40852278          0.0     
O24       O         1.0     0.58893464          0.77224613          0.40935057          0.0     
O25       O         1.0     0.08932657          0.27943337          0.44173152          0.0     
O26       O         1.0     0.58903914          0.27423493          0.44304818          0.0     
O27       O         1.0     0.33405222          0.5833925           0.5100506           0.0     
O28       O         1.0     0.84448543          0.58339464          0.51001393          0.0     
O29       O         1.0     0.33199412          0.97076895          0.50758783          0.0     
O30       O         1.0     0.84653065          0.97076123          0.50754864          0.0     
O31       O         1.0     0.08935519          0.27645115          0.55655764          0.0     
O32       O         1.0     0.58935557          0.27311803          0.56126894          0.0     
Ti1       Ti        1.0     0.08911189          0.2734632           0.05727859          0.0     
Ti2       Ti        1.0     0.58911189          0.2734632           0.05727859          0.0     
Ti3       Ti        1.0     0.33911189          0.7734632           0.05727859          0.0     
Ti4       Ti        1.0     0.83911189          0.7734632           0.05727859          0.0     
Ti5       Ti        1.0     0.33911189          0.2734632           0.2035243           0.0     
Ti6       Ti        1.0     0.83911189          0.2734632           0.2035243           0.0     
Ti7       Ti        1.0     0.08911189          0.7734632           0.2035243           0.0     
Ti8       Ti        1.0     0.58911189          0.7734632           0.2035243           0.0     
Ti9       Ti        1.0     0.08918933          0.27406264          0.35059908          0.0     
Ti10      Ti        1.0     0.58917129          0.2725591           0.35616981          0.0     
Ti11      Ti        1.0     0.33869997          0.77290233          0.3470131           0.0     
Ti12      Ti        1.0     0.83947599          0.77290628          0.34703564          0.0     
Ti13      Ti        1.0     0.32732274          0.27599448          0.50285792          0.0     
Ti14      Ti        1.0     0.85189713          0.27598682          0.50291786          0.0     
Ti15      Ti        1.0     0.08924725          0.77441347          0.49032452          0.0     
Mo1       Mo        1.0     0.58924364          0.77784816          0.4929634           0.0     
