data_OV
_audit_creation_method           'pos2cif.pl'
_cell_length_a               5.64711014
_cell_length_b               6.45014784379043
_cell_length_c               22.2672781805017
_cell_angle_alpha            90
_cell_angle_beta             90
_cell_angle_gamma            90
_symmetry_space_group_H-M        'P1'
_symmetry_Int_Tables_number      '1'
_symmetry_cell_setting           'triclinic'
loop_
_symmetry_equiv_pos_as_xyz
x,y,z

loop_
_atom_site_label
_atom_site_type_symbol
_atom_site_occupancy
_atom_site_fract_x
_atom_site_fract_y
_atom_site_fract_z
_atom_site_U_iso_or_equiv
O1  O  1.0000  0.41591  0.55480  0.00000  0.0000
O2  O  1.0000  0.91591  0.55480  0.00000  0.0000
O3  O  1.0000  0.16591  0.25573  0.05820  0.0000
O4  O  1.0000  0.66591  0.25573  0.05820  0.0000
O5  O  1.0000  0.16591  0.85387  0.05820  0.0000
O6  O  1.0000  0.66591  0.85387  0.05820  0.0000
O7  O  1.0000  0.41591  0.55480  0.11641  0.0000
O8  O  1.0000  0.91591  0.55480  0.11641  0.0000
O9  O  1.0000  0.41591  0.05480  0.14483  0.0000
O10  O  1.0000  0.91591  0.05480  0.14483  0.0000
O11  O  1.0000  0.16591  0.35387  0.20304  0.0000
O12  O  1.0000  0.66591  0.35387  0.20304  0.0000
O13  O  1.0000  0.16591  0.75573  0.20304  0.0000
O14  O  1.0000  0.66591  0.75573  0.20304  0.0000
O15  O  1.0000  0.41591  0.05480  0.26124  0.0000
O16  O  1.0000  0.91591  0.05480  0.26124  0.0000
O17  O  1.0000  0.41599  0.55479  0.28893  0.0000
O18  O  1.0000  0.91599  0.55479  0.28893  0.0000
O19  O  1.0000  0.16593  0.25640  0.34923  0.0000
O20  O  1.0000  0.66593  0.25640  0.34923  0.0000
O21  O  1.0000  0.16590  0.85320  0.34921  0.0000
O22  O  1.0000  0.66590  0.85320  0.34921  0.0000
O23  O  1.0000  0.41595  0.55479  0.40695  0.0000
O24  O  1.0000  0.91595  0.55479  0.40695  0.0000
O25  O  1.0000  0.41596  0.05468  0.43837  0.0000
O26  O  1.0000  0.91596  0.05468  0.43837  0.0000
O27  O  1.0000  0.16597  0.36397  0.50211  0.0000
O28  O  1.0000  0.66596  0.36397  0.50211  0.0000
O29  O  1.0000  0.16596  0.74534  0.50213  0.0000
O30  O  1.0000  0.66596  0.74534  0.50213  0.0000
O31  O  1.0000  0.41603  0.05471  0.55142  0.0000
O32  O  1.0000  0.91603  0.05471  0.55142  0.0000
V1  V  1.0000  0.41591  0.05480  0.05820  0.0000
V2  V  1.0000  0.91591  0.05480  0.05820  0.0000
V3  V  1.0000  0.16591  0.55480  0.05820  0.0000
V4  V  1.0000  0.66591  0.55480  0.05820  0.0000
V5  V  1.0000  0.16591  0.05480  0.20304  0.0000
V6  V  1.0000  0.66591  0.05480  0.20304  0.0000
V7  V  1.0000  0.41591  0.55480  0.20304  0.0000
V8  V  1.0000  0.91591  0.55480  0.20304  0.0000
V9  V  1.0000  0.41603  0.05485  0.35310  0.0000
V10  V  1.0000  0.91603  0.05485  0.35310  0.0000
V11  V  1.0000  0.16603  0.55490  0.34441  0.0000
V12  V  1.0000  0.66603  0.55490  0.34441  0.0000
V13  V  1.0000  0.16606  0.05472  0.50213  0.0000
V14  V  1.0000  0.66606  0.05472  0.50213  0.0000
V15  V  1.0000  0.41595  0.55468  0.48529  0.0000
V16  V  1.0000  0.91595  0.55468  0.48529  0.0000
