data_ORu
_audit_creation_method           'pos2cif.pl'
_cell_length_a               6.22358237
_cell_length_b               6.35872035119657
_cell_length_c               22.0080618572012
_cell_angle_alpha            90
_cell_angle_beta             90
_cell_angle_gamma            90
_symmetry_space_group_H-M        'P1'
_symmetry_Int_Tables_number      '1'
_symmetry_cell_setting           'triclinic'
loop_
_symmetry_equiv_pos_as_xyz
x,y,z

loop_
_atom_site_label
_atom_site_type_symbol
_atom_site_occupancy
_atom_site_fract_x
_atom_site_fract_y
_atom_site_fract_z
_atom_site_U_iso_or_equiv
O1  O  1.0000  0.33911  0.07924  0.05612  0.0000
O2  O  1.0000  0.83911  0.07924  0.05612  0.0000
O3  O  1.0000  0.33911  0.46768  0.05612  0.0000
O4  O  1.0000  0.83911  0.46768  0.05612  0.0000
O5  O  1.0000  0.08911  0.77346  0.11223  0.0000
O6  O  1.0000  0.58911  0.77346  0.11223  0.0000
O7  O  1.0000  0.08911  0.27346  0.14446  0.0000
O8  O  1.0000  0.58911  0.27346  0.14446  0.0000
O9  O  1.0000  0.33911  0.57924  0.20058  0.0000
O10  O  1.0000  0.83911  0.57924  0.20058  0.0000
O11  O  1.0000  0.33911  0.96768  0.20058  0.0000
O12  O  1.0000  0.83911  0.96768  0.20058  0.0000
O13  O  1.0000  0.08911  0.27346  0.25669  0.0000
O14  O  1.0000  0.58911  0.27346  0.25669  0.0000
O15  O  1.0000  0.08908  0.77347  0.28821  0.0000
O16  O  1.0000  0.58908  0.77347  0.28821  0.0000
O17  O  1.0000  0.33906  0.07973  0.34538  0.0000
O18  O  1.0000  0.83906  0.07973  0.34538  0.0000
O19  O  1.0000  0.33908  0.46709  0.34536  0.0000
O20  O  1.0000  0.83908  0.46709  0.34536  0.0000
O21  O  1.0000  0.08909  0.77351  0.39942  0.0000
O22  O  1.0000  0.58908  0.77351  0.39942  0.0000
O23  O  1.0000  0.08907  0.27349  0.43440  0.0000
O24  O  1.0000  0.58907  0.27349  0.43440  0.0000
O25  O  1.0000  0.33912  0.58367  0.49190  0.0000
O26  O  1.0000  0.83913  0.58367  0.49190  0.0000
O27  O  1.0000  0.33911  0.96336  0.49194  0.0000
O28  O  1.0000  0.83911  0.96335  0.49194  0.0000
O29  O  1.0000  0.08908  0.27361  0.54406  0.0000
O30  O  1.0000  0.58908  0.27361  0.54406  0.0000
O31  O  1.0000  0.08911  0.77346  0.00000  0.0000
O32  O  1.0000  0.58911  0.77346  0.00000  0.0000
Ru1  Ru  1.0000  0.08911  0.27346  0.05612  0.0000
Ru2  Ru  1.0000  0.58911  0.27346  0.05612  0.0000
Ru3  Ru  1.0000  0.33911  0.77346  0.05612  0.0000
Ru4  Ru  1.0000  0.83911  0.77346  0.05612  0.0000
Ru5  Ru  1.0000  0.33911  0.27346  0.20058  0.0000
Ru6  Ru  1.0000  0.83911  0.27346  0.20058  0.0000
Ru7  Ru  1.0000  0.08911  0.77346  0.20058  0.0000
Ru8  Ru  1.0000  0.58911  0.77346  0.20058  0.0000
Ru9  Ru  1.0000  0.08906  0.27342  0.34601  0.0000
Ru10  Ru  1.0000  0.58904  0.27343  0.34601  0.0000
Ru11  Ru  1.0000  0.33907  0.77343  0.34396  0.0000
Ru12  Ru  1.0000  0.83905  0.77343  0.34396  0.0000
Ru13  Ru  1.0000  0.33908  0.27352  0.49398  0.0000
Ru14  Ru  1.0000  0.83908  0.27352  0.49398  0.0000
Ru15  Ru  1.0000  0.08914  0.77350  0.48476  0.0000
Ru16  Ru  1.0000  0.58914  0.77350  0.48475  0.0000
