data_OPb
_audit_creation_method           'pos2cif.pl'
_cell_length_a               6.86122651
_cell_length_b               7.02544159124592
_cell_length_c               23.2452055436641
_cell_angle_alpha            90
_cell_angle_beta             90
_cell_angle_gamma            90
_symmetry_space_group_H-M        'P1'
_symmetry_Int_Tables_number      '1'
_symmetry_cell_setting           'triclinic'
loop_
_symmetry_equiv_pos_as_xyz
x,y,z

loop_
_atom_site_label
_atom_site_type_symbol
_atom_site_occupancy
_atom_site_fract_x
_atom_site_fract_y
_atom_site_fract_z
_atom_site_U_iso_or_equiv
O1  O  1.0000  0.36591  0.05480  0.00000  0.0000
O2  O  1.0000  0.86591  0.05480  0.00000  0.0000
O3  O  1.0000  0.11591  0.36214  0.05823  0.0000
O4  O  1.0000  0.61591  0.36214  0.05823  0.0000
O5  O  1.0000  0.11591  0.74746  0.05823  0.0000
O6  O  1.0000  0.61591  0.74746  0.05823  0.0000
O7  O  1.0000  0.36591  0.05480  0.11646  0.0000
O8  O  1.0000  0.86591  0.05480  0.11646  0.0000
O9  O  1.0000  0.36591  0.55480  0.15112  0.0000
O10  O  1.0000  0.86591  0.55480  0.15112  0.0000
O11  O  1.0000  0.11591  0.24746  0.20934  0.0000
O12  O  1.0000  0.61591  0.24746  0.20934  0.0000
O13  O  1.0000  0.11591  0.86214  0.20934  0.0000
O14  O  1.0000  0.61591  0.86214  0.20934  0.0000
O15  O  1.0000  0.36591  0.55480  0.26757  0.0000
O16  O  1.0000  0.86591  0.55480  0.26757  0.0000
O17  O  1.0000  0.36608  0.05457  0.30318  0.0000
O18  O  1.0000  0.86605  0.05458  0.30316  0.0000
O19  O  1.0000  0.11602  0.36108  0.36296  0.0000
O20  O  1.0000  0.61606  0.36109  0.36297  0.0000
O21  O  1.0000  0.11603  0.74878  0.36300  0.0000
O22  O  1.0000  0.61607  0.74878  0.36300  0.0000
O23  O  1.0000  0.36617  0.05480  0.42161  0.0000
O24  O  1.0000  0.86619  0.05480  0.42161  0.0000
O25  O  1.0000  0.36596  0.55457  0.45795  0.0000
O26  O  1.0000  0.86598  0.55462  0.45799  0.0000
O27  O  1.0000  0.11626  0.24051  0.52960  0.0000
O28  O  1.0000  0.61630  0.24049  0.52960  0.0000
O29  O  1.0000  0.11626  0.86882  0.52962  0.0000
O30  O  1.0000  0.61627  0.86881  0.52962  0.0000
O31  O  1.0000  0.36621  0.55459  0.57763  0.0000
O32  O  1.0000  0.86620  0.55461  0.57763  0.0000
Pb1  Pb  1.0000  0.11591  0.05480  0.05823  0.0000
Pb2  Pb  1.0000  0.61591  0.05480  0.05823  0.0000
Pb3  Pb  1.0000  0.36591  0.55480  0.05823  0.0000
Pb4  Pb  1.0000  0.86591  0.55480  0.05823  0.0000
Pb5  Pb  1.0000  0.36591  0.05480  0.20934  0.0000
Pb6  Pb  1.0000  0.86591  0.05480  0.20934  0.0000
Pb7  Pb  1.0000  0.11591  0.55480  0.20934  0.0000
Pb8  Pb  1.0000  0.61591  0.55480  0.20934  0.0000
Pb9  Pb  1.0000  0.11625  0.05496  0.36068  0.0000
Pb10  Pb  1.0000  0.61607  0.05495  0.36068  0.0000
Pb11  Pb  1.0000  0.36601  0.55496  0.36347  0.0000
Pb12  Pb  1.0000  0.86601  0.55496  0.36348  0.0000
Pb13  Pb  1.0000  0.36624  0.05473  0.51352  0.0000
Pb14  Pb  1.0000  0.86624  0.05470  0.51352  0.0000
Pb15  Pb  1.0000  0.11599  0.55467  0.52151  0.0000
Pb16  Pb  1.0000  0.61632  0.55467  0.52151  0.0000
