data_OTi
_audit_creation_method           'pos2cif.pl'
_cell_length_a               5.92135997
_cell_length_b               6.54774291971969
_cell_length_c               22.3861033738608
_cell_angle_alpha            90
_cell_angle_beta             90
_cell_angle_gamma            90
_symmetry_space_group_H-M        'P1'
_symmetry_Int_Tables_number      '1'
_symmetry_cell_setting           'triclinic'
loop_
_symmetry_equiv_pos_as_xyz
x,y,z

loop_
_atom_site_label
_atom_site_type_symbol
_atom_site_occupancy
_atom_site_fract_x
_atom_site_fract_y
_atom_site_fract_z
_atom_site_U_iso_or_equiv
O1  O  1.0000  0.08911  0.77346  0.00000  0.0000
O2  O  1.0000  0.58911  0.77346  0.00000  0.0000
O3  O  1.0000  0.33911  0.07763  0.05728  0.0000
O4  O  1.0000  0.83911  0.07763  0.05728  0.0000
O5  O  1.0000  0.33911  0.46929  0.05728  0.0000
O6  O  1.0000  0.83911  0.46929  0.05728  0.0000
O7  O  1.0000  0.08911  0.77346  0.11456  0.0000
O8  O  1.0000  0.58911  0.77346  0.11456  0.0000
O9  O  1.0000  0.08911  0.27346  0.14625  0.0000
O10  O  1.0000  0.58911  0.27346  0.14625  0.0000
O11  O  1.0000  0.33911  0.57763  0.20352  0.0000
O12  O  1.0000  0.83911  0.57763  0.20352  0.0000
O13  O  1.0000  0.33911  0.96929  0.20352  0.0000
O14  O  1.0000  0.83911  0.96929  0.20352  0.0000
O15  O  1.0000  0.08911  0.27346  0.26080  0.0000
O16  O  1.0000  0.58911  0.27346  0.26080  0.0000
O17  O  1.0000  0.08912  0.77348  0.29386  0.0000
O18  O  1.0000  0.58912  0.77348  0.29386  0.0000
O19  O  1.0000  0.33912  0.07420  0.35081  0.0000
O20  O  1.0000  0.83912  0.07420  0.35081  0.0000
O21  O  1.0000  0.33912  0.47274  0.35079  0.0000
O22  O  1.0000  0.83912  0.47274  0.35079  0.0000
O23  O  1.0000  0.08905  0.77343  0.40851  0.0000
O24  O  1.0000  0.58905  0.77343  0.40851  0.0000
O25  O  1.0000  0.08896  0.27343  0.43992  0.0000
O26  O  1.0000  0.58896  0.27343  0.43992  0.0000
O27  O  1.0000  0.33892  0.58532  0.50494  0.0000
O28  O  1.0000  0.83892  0.58532  0.50494  0.0000
O29  O  1.0000  0.33889  0.96144  0.50494  0.0000
O30  O  1.0000  0.83889  0.96144  0.50494  0.0000
O31  O  1.0000  0.08898  0.27336  0.55542  0.0000
O32  O  1.0000  0.58898  0.27336  0.55542  0.0000
Ti1  Ti  1.0000  0.08911  0.27346  0.05728  0.0000
Ti2  Ti  1.0000  0.58911  0.27346  0.05728  0.0000
Ti3  Ti  1.0000  0.33911  0.77346  0.05728  0.0000
Ti4  Ti  1.0000  0.83911  0.77346  0.05728  0.0000
Ti5  Ti  1.0000  0.33911  0.27346  0.20352  0.0000
Ti6  Ti  1.0000  0.83911  0.27346  0.20352  0.0000
Ti7  Ti  1.0000  0.08911  0.77346  0.20352  0.0000
Ti8  Ti  1.0000  0.58911  0.77346  0.20352  0.0000
Ti9  Ti  1.0000  0.08924  0.27341  0.35604  0.0000
Ti10  Ti  1.0000  0.58924  0.27341  0.35604  0.0000
Ti11  Ti  1.0000  0.33918  0.77339  0.34723  0.0000
Ti12  Ti  1.0000  0.83918  0.77339  0.34723  0.0000
Ti13  Ti  1.0000  0.33907  0.27339  0.50609  0.0000
Ti14  Ti  1.0000  0.83907  0.27339  0.50609  0.0000
Ti15  Ti  1.0000  0.08896  0.77339  0.49034  0.0000
Ti16  Ti  1.0000  0.58896  0.77339  0.49034  0.0000
