data_OIrTi
_audit_creation_method        'pos2cif.py'        
_cell_length_a                6.36215693          
_cell_length_b                6.384482994809508   
_cell_length_c                22.021598412435427  
_cell_angle_alpha             90.0                
_cell_angle_beta              90.0                
_cell_angle_gamma             90.0                
_symmetry_space_group_H-M     'P1'                
_symmetry_Int_Tables_number   '1'                 
_symmetry_cell_setting        'triclinic'         
loop_                         
_symmetry_equiv_pos_as_xyz    
x,y,z                         

loop_                         
_atom_site_label              
_atom_site_type_symbol        
_atom_site_occupancy          
_atom_site_fract_x            
_atom_site_fract_y            
_atom_site_fract_z            
_atom_site_U_iso_or_equiv     
O1   O    1.0     -0.08911189         -0.35545641         0.0                 0.0     
O2   O    1.0     -0.58911189         -0.35545641         0.0                 0.0     
O3   O    1.0     -0.33911189         -0.04692641         0.05551082          0.0     
O4   O    1.0     -0.83911189         -0.04692641         0.05551082          0.0     
O5   O    1.0     -0.33911189         -0.66398641         0.05551082          0.0     
O6   O    1.0     -0.83911189         -0.66398641         0.05551082          0.0     
O7   O    1.0     -0.08911189         -0.35545641         0.11102164          0.0     
O8   O    1.0     -0.58911189         -0.35545641         0.11102164          0.0     
O9   O    1.0     -0.08911189         -0.85545641         0.14495957          0.0     
O10  O    1.0     -0.58911189         -0.85545641         0.14495957          0.0     
O11  O    1.0     -0.33911189         -0.16398641         0.20047039          0.0     
O12  O    1.0     -0.83911189         -0.16398641         0.20047039          0.0     
O13  O    1.0     -0.33911189         -0.54692641         0.20047039          0.0     
O14  O    1.0     -0.83911189         -0.54692641         0.20047039          0.0     
O15  O    1.0     -0.08911189         -0.85545641         0.25598121          0.0     
O16  O    1.0     -0.58911189         -0.85545641         0.25598121          0.0     
O17  O    1.0     -0.08916463         -0.35543811         0.28961029          0.0     
O18  O    1.0     -0.58916342         -0.35546879         0.2892381           0.0     
O19  O    1.0     -0.33939581         -0.04683141         0.34603363          0.0     
O20  O    1.0     -0.83891791         -0.04682424         0.34604229          0.0     
O21  O    1.0     -0.33938614         -0.66406306         0.34602831          0.0     
O22  O    1.0     -0.8389084          -0.66406337         0.34602753          0.0     
O23  O    1.0     -1.08917783         -0.35555748         0.40006758          0.0     
O24  O    1.0     -0.58916111         -0.3554712          0.4007118           0.0     
O25  O    1.0     -1.08914306         -0.85546475         0.43623916          0.0     
O26  O    1.0     -0.58914617         -0.85548148         0.43593249          0.0     
O27  O    1.0     -0.34631432         -0.16631564         0.49356295          0.0     
O28  O    1.0     -0.83176452         -0.16629533         0.49355424          0.0     
O29  O    1.0     -0.34632562         -0.54466701         0.49355568          0.0     
O30  O    1.0     -0.83175611         -0.54469792         0.49358722          0.0     
O31  O    1.0     -1.08912519         -0.85551771         0.54614822          0.0     
O32  O    1.0     -0.58910821         -0.85551718         0.54639119          0.0     
Ir33 Ir   1.0     -0.33911189         -0.35545641         0.05551082          0.0     
Ir34 Ir   1.0     -0.83911189         -0.35545641         0.05551082          0.0     
Ir35 Ir   1.0     -0.08911189         -0.85545641         0.05551082          0.0     
Ir36 Ir   1.0     -0.58911189         -0.85545641         0.05551082          0.0     
Ir37 Ir   1.0     -0.08911189         -0.35545641         0.20047039          0.0     
Ir38 Ir   1.0     -0.58911189         -0.35545641         0.20047039          0.0     
Ir39 Ir   1.0     -0.33911189         -0.85545641         0.20047039          0.0     
Ir40 Ir   1.0     -0.83911189         -0.85545641         0.20047039          0.0     
Ir41 Ir   1.0     -0.33969401         -0.35544074         0.34464928          0.0     
Ir42 Ir   1.0     -0.83863147         -0.35543935         0.34464855          0.0     
Ir43 Ir   1.0     -0.08913783         -0.85543897         0.34662074          0.0     
Ir44 Ir   1.0     -0.58913572         -0.85544393         0.34630022          0.0     
Ir45 Ir   1.0     -1.08900693         -0.35548565         0.4874431           0.0     
Ir46 Ir   1.0     -0.3386797          -0.8554773          0.49271022          0.0     
Ir47 Ir   1.0     -0.839556           -0.85548227         0.49271397          0.0     
Ti48 Ti   1.0     -0.589048           -0.35548027         0.48507476          0.0     
