data_OMnMo
_audit_creation_method        'pos2cif.py by jyxu'
_cell_length_a                5.45982775          
_cell_length_b                6.98349398          
_cell_length_c                23.51334018         
_cell_angle_alpha             90.0                
_cell_angle_beta              90.0                
_cell_angle_gamma             90.0                
_symmetry_space_group_H-M     'P1'                
_symmetry_Int_Tables_number   '1'                 
_symmetry_cell_setting        'triclinic'         
loop_                         
_symmetry_equiv_pos_as_xyz    
x,y,z                         

loop_                         
_atom_site_label              
_atom_site_type_symbol        
_atom_site_occupancy          
_atom_site_fract_x            
_atom_site_fract_y            
_atom_site_fract_z            
_atom_site_U_iso_or_equiv     
O1        O         1.0     0.13081166          0.5696981           0.0                 0.0     
O2        O         1.0     0.63081166          0.5696981           0.0                 0.0     
O3        O         1.0     0.38081166          0.2872181           0.06460374          0.0     
O4        O         1.0     0.88081166          0.2872181           0.06460374          0.0     
O5        O         1.0     0.38081166          0.8521781           0.06460374          0.0     
O6        O         1.0     0.88081166          0.8521781           0.06460374          0.0     
O7        O         1.0     0.13081166          0.5696981           0.12920747          0.0     
O8        O         1.0     0.63081166          0.5696981           0.12920747          0.0     
O9        O         1.0     0.63081166          0.0696981           0.14850068          0.0     
O10       O         1.0     0.13081166          0.0696981           0.14850068          0.0     
O11       O         1.0     0.38081166          0.3521781           0.21310441          0.0     
O12       O         1.0     0.88081166          0.3521781           0.21310441          0.0     
O13       O         1.0     0.38081166          0.7872181           0.21310441          0.0     
O14       O         1.0     0.88081166          0.7872181           0.21310441          0.0     
O15       O         1.0     0.13081166          0.0696981           0.27770815          0.0     
O16       O         1.0     0.63081166          0.0696981           0.27770815          0.0     
O17       O         1.0     0.63283112          0.56977961          0.29419853          0.0     
O18       O         1.0     0.12970526          0.56978033          0.29950025          0.0     
O19       O         1.0     0.87373326          0.27762698          0.36187224          0.0     
O20       O         1.0     0.37573851          0.2929008           0.36152303          0.0     
O21       O         1.0     0.37574722          0.84659441          0.36157474          0.0     
O22       O         1.0     0.87369945          0.86187976          0.36190022          0.0     
O23       O         1.0     0.13050146          0.56971802          0.42178581          0.0     
O24       O         1.0     0.63590929          0.56951105          0.4255224           0.0     
O25       O         1.0     0.62580611          0.06984863          0.44643154          0.0     
O26       O         1.0     0.13660689          0.06989939          0.45113433          0.0     
O27       O         1.0     0.88416865          0.36450179          0.51316388          0.0     
O28       O         1.0     0.88416013          0.77503419          0.51311148          0.0     
O29       O         1.0     0.38844484          0.37739993          0.5151985           0.0     
O30       O         1.0     0.38854037          0.76250412          0.515136            0.0     
O31       O         1.0     0.13186319          0.06964372          0.56904575          0.0     
O32       O         1.0     0.63208423          0.06997927          0.5784362           0.0     
Mn1       Mn        1.0     0.64912195          0.56979526          0.50972931          0.0     
Mo1       Mo        1.0     0.13081166          0.0696981           0.06460374          0.0     
Mo2       Mo        1.0     0.63081166          0.0696981           0.06460374          0.0     
Mo3       Mo        1.0     0.38081166          0.5696981           0.06460374          0.0     
Mo4       Mo        1.0     0.88081166          0.5696981           0.06460374          0.0     
Mo5       Mo        1.0     0.38081166          0.0696981           0.21310441          0.0     
Mo6       Mo        1.0     0.88081166          0.0696981           0.21310441          0.0     
Mo7       Mo        1.0     0.13081166          0.5696981           0.21310441          0.0     
Mo8       Mo        1.0     0.63081166          0.5696981           0.21310441          0.0     
Mo9       Mo        1.0     0.85792707          0.56974495          0.36020371          0.0     
Mo10      Mo        1.0     0.41037948          0.56972022          0.36046848          0.0     
Mo11      Mo        1.0     0.60628395          0.0697682           0.36357841          0.0     
Mo12      Mo        1.0     0.14784608          0.06975393          0.36408632          0.0     
Mo13      Mo        1.0     0.12614735          0.56975006          0.50035481          0.0     
Mo14      Mo        1.0     0.85920455          0.06986118          0.51449036          0.0     
Mo15      Mo        1.0     0.40202491          0.06944588          0.51585153          0.0     
