data_OVMo
_audit_creation_method        'pos2cif.py by jyxu'
_cell_length_a                5.64711014          
_cell_length_b                6.450147843790429   
_cell_length_c                22.267278180501698  
_cell_angle_alpha             90.0                
_cell_angle_beta              90.0                
_cell_angle_gamma             90.0                
_symmetry_space_group_H-M     'P1'                
_symmetry_Int_Tables_number   '1'                 
_symmetry_cell_setting        'triclinic'         
loop_                         
_symmetry_equiv_pos_as_xyz    
x,y,z                         

loop_                         
_atom_site_label              
_atom_site_type_symbol        
_atom_site_occupancy          
_atom_site_fract_x            
_atom_site_fract_y            
_atom_site_fract_z            
_atom_site_U_iso_or_equiv     
O1        O         1.0     0.41591489          0.55480134          0.0                 0.0     
O2        O         1.0     -0.08408511         0.55480134          0.0                 0.0     
O3        O         1.0     0.16591489          0.25573134          0.05820326          0.0     
O4        O         1.0     0.66591489          0.25573134          0.05820326          0.0     
O5        O         1.0     0.16591489          0.85387134          0.05820326          0.0     
O6        O         1.0     0.66591489          0.85387134          0.05820326          0.0     
O7        O         1.0     0.41591489          0.55480134          0.11640652          0.0     
O8        O         1.0     -0.08408511         0.55480134          0.11640652          0.0     
O9        O         1.0     0.41591489          0.05480134          0.14483467          0.0     
O10       O         1.0     -0.08408511         0.05480134          0.14483467          0.0     
O11       O         1.0     0.16591489          0.35387134          0.20303793          0.0     
O12       O         1.0     0.66591489          0.35387134          0.20303793          0.0     
O13       O         1.0     0.16591489          0.75573134          0.20303793          0.0     
O14       O         1.0     0.66591489          0.75573134          0.20303793          0.0     
O15       O         1.0     0.41591489          0.05480134          0.26124119          0.0     
O16       O         1.0     -0.08408511         0.05480134          0.26124119          0.0     
O17       O         1.0     0.41595195          0.55475356          0.28970392          0.0     
O18       O         1.0     -0.0840373          0.55477286          0.28766093          0.0     
O19       O         1.0     0.16487344          0.25735029          0.34978837          0.0     
O20       O         1.0     0.66697873          0.25737057          0.34978948          0.0     
O21       O         1.0     0.16479469          0.85220072          0.34977722          0.0     
O22       O         1.0     0.66700297          0.85220957          0.34977707          0.0     
O23       O         1.0     0.41598349          0.554826            0.4058278           0.0     
O24       O         1.0     -0.08403625         0.55472566          0.40825089          0.0     
O25       O         1.0     0.41599747          0.05471291          0.44011105          0.0     
O26       O         1.0     -0.08404647         0.05475455          0.44044898          0.0     
O27       O         1.0     0.15966672          0.36119071          0.50762565          0.0     
O28       O         1.0     0.67243193          0.361184            0.50764234          0.0     
O29       O         1.0     0.15962463          0.74823226          0.50766853          0.0     
O30       O         1.0     0.67247502          0.74824685          0.50768344          0.0     
O31       O         1.0     0.41603254          0.0547671           0.553414            0.0     
O32       O         1.0     -0.08392997         0.05477995          0.5541101           0.0     
V1        V         1.0     0.41591489          0.05480134          0.05820326          0.0     
V2        V         1.0     -0.08408511         0.05480134          0.05820326          0.0     
V3        V         1.0     0.16591489          0.55480134          0.05820326          0.0     
V4        V         1.0     0.66591489          0.55480134          0.05820326          0.0     
V5        V         1.0     0.16591489          0.05480134          0.20303793          0.0     
V6        V         1.0     0.66591489          0.05480134          0.20303793          0.0     
V7        V         1.0     0.41591489          0.55480134          0.20303793          0.0     
V8        V         1.0     -0.08408511         0.55480134          0.20303793          0.0     
V9        V         1.0     0.415988            0.05479563          0.35397409          0.0     
V10       V         1.0     -0.08402586         0.05479642          0.35455322          0.0     
V11       V         1.0     0.15954581          0.55481203          0.34332116          0.0     
V12       V         1.0     0.6724227           0.55481158          0.34332312          0.0     
V13       V         1.0     0.1646395           0.05472764          0.50455275          0.0     
V14       V         1.0     0.66751501          0.05473065          0.50455341          0.0     
V15       V         1.0     -0.08398264         0.55469557          0.48669124          0.0     
Mo1       Mo        1.0     0.41605667          0.5547173           0.48657875          0.0     
