data_ORh
_audit_creation_method           'pos2cif.pl'
_cell_length_a               6.19967903
_cell_length_b               6.35884788497563
_cell_length_c               21.9957121948414
_cell_angle_alpha            90
_cell_angle_beta             90
_cell_angle_gamma            90
_symmetry_space_group_H-M        'P1'
_symmetry_Int_Tables_number      '1'
_symmetry_cell_setting           'triclinic'
loop_
_symmetry_equiv_pos_as_xyz
x,y,z

loop_
_atom_site_label
_atom_site_type_symbol
_atom_site_occupancy
_atom_site_fract_x
_atom_site_fract_y
_atom_site_fract_z
_atom_site_U_iso_or_equiv
O1  O  1.0000  0.13081  0.56970  0.00000  0.0000
O2  O  1.0000  0.63081  0.56970  0.00000  0.0000
O3  O  1.0000  0.38081  0.26293  0.05586  0.0000
O4  O  1.0000  0.88081  0.26293  0.05586  0.0000
O5  O  1.0000  0.38081  0.87647  0.05586  0.0000
O6  O  1.0000  0.88081  0.87647  0.05586  0.0000
O7  O  1.0000  0.13081  0.56970  0.11172  0.0000
O8  O  1.0000  0.63081  0.56970  0.11172  0.0000
O9  O  1.0000  0.13081  0.06970  0.14455  0.0000
O10  O  1.0000  0.63081  0.06970  0.14455  0.0000
O11  O  1.0000  0.38081  0.37647  0.20041  0.0000
O12  O  1.0000  0.88081  0.37647  0.20041  0.0000
O13  O  1.0000  0.38081  0.76293  0.20041  0.0000
O14  O  1.0000  0.88081  0.76293  0.20041  0.0000
O15  O  1.0000  0.13081  0.06970  0.25627  0.0000
O16  O  1.0000  0.63081  0.06970  0.25627  0.0000
O17  O  1.0000  0.13068  0.56968  0.28863  0.0000
O18  O  1.0000  0.63068  0.56968  0.28863  0.0000
O19  O  1.0000  0.38073  0.26272  0.34546  0.0000
O20  O  1.0000  0.88073  0.26272  0.34546  0.0000
O21  O  1.0000  0.38069  0.87662  0.34547  0.0000
O22  O  1.0000  0.88069  0.87662  0.34547  0.0000
O23  O  1.0000  0.13067  0.57018  0.39991  0.0000
O24  O  1.0000  0.63067  0.57018  0.39991  0.0000
O25  O  1.0000  0.13093  0.06983  0.43487  0.0000
O26  O  1.0000  0.63093  0.06983  0.43487  0.0000
O27  O  1.0000  0.38087  0.37952  0.49438  0.0000
O28  O  1.0000  0.88087  0.37952  0.49438  0.0000
O29  O  1.0000  0.38083  0.75970  0.49439  0.0000
O30  O  1.0000  0.88083  0.75970  0.49439  0.0000
O31  O  1.0000  0.13094  0.06971  0.54642  0.0000
O32  O  1.0000  0.63094  0.06971  0.54642  0.0000
Rh1  Rh  1.0000  0.13081  0.06970  0.05586  0.0000
Rh2  Rh  1.0000  0.63081  0.06970  0.05586  0.0000
Rh3  Rh  1.0000  0.38081  0.56970  0.05586  0.0000
Rh4  Rh  1.0000  0.88081  0.56970  0.05586  0.0000
Rh5  Rh  1.0000  0.38081  0.06970  0.20041  0.0000
Rh6  Rh  1.0000  0.88081  0.06970  0.20041  0.0000
Rh7  Rh  1.0000  0.13081  0.56970  0.20041  0.0000
Rh8  Rh  1.0000  0.63081  0.56970  0.20041  0.0000
Rh9  Rh  1.0000  0.13075  0.06965  0.34580  0.0000
Rh10  Rh  1.0000  0.63074  0.06965  0.34580  0.0000
Rh11  Rh  1.0000  0.38068  0.56958  0.34431  0.0000
Rh12  Rh  1.0000  0.88068  0.56959  0.34431  0.0000
Rh13  Rh  1.0000  0.38095  0.06954  0.49195  0.0000
Rh14  Rh  1.0000  0.88094  0.06954  0.49195  0.0000
Rh15  Rh  1.0000  0.13086  0.56956  0.48665  0.0000
Rh16  Rh  1.0000  0.63086  0.56956  0.48665  0.0000
